gem5 Simulator System.  http://gem5.org
gem5 is copyrighted software; use the --copyright option for details.

gem5 compiled Apr  8 2020 18:16:55
gem5 started Apr 10 2020 12:23:14
gem5 executing on ar443-PC2, pid 1490
command line: ./build/X86/gem5.opt --stats-file=401-0.bzip2-stats-2b.txt ./configs/example/se.py --warmup-insts 10000000 --cpu-type=TimingSimpleCPU --caches --l1d_size=32kB --l1i_size=32kB --l2cache --l2_size=2048kB --l2_assoc=16 --mem-size=16GB --mem-type=NVMainMemory --nvmain-config=nvmain/hdrc/hdrc.config -c /home/ar443/jia/gem5/cpu2006/benchspec/CPU2006/401.bzip2/exe/bzip2_base.amd64-m64-gcc41-nn -o '/home/ar443/jia/gem5/cpu2006/benchspec/CPU2006/401.bzip2/data/all/input/input.combined 200' --input cin --output /home/ar443/jia/gem5/cpu2006/benchspec/CPU2006/401.bzip2/data/ref/output/input.combined.out -I 1000000000 -n 1

info: Standard input is not a terminal, disabling listeners.
Global frequency set at 1000000000000 ticks per second
NVMainControl: Reading NVMain config file: nvmain/hdrc/hdrc.config.
warn: Sockets disabled, not accepting gdb connections
NVMain: GlobalEventQueue: Added a memory subsystem running at 666MHz. My frequency is 3200MHz.
set config for HierDRAMCache
Config: Warning: Key EIDD0 is not set. Using '85' as the default. Please configure this value if this is wrong.
Config: Warning: Key EIDD1 is not set. Using '54' as the default. Please configure this value if this is wrong.
Config: Warning: Key EIDD2P0 is not set. Using '30' as the default. Please configure this value if this is wrong.
Config: Warning: Key EIDD2P1 is not set. Using '30' as the default. Please configure this value if this is wrong.
Config: Warning: Key EIDD2N is not set. Using '37' as the default. Please configure this value if this is wrong.
Config: Warning: Key EIDD3P is not set. Using '35' as the default. Please configure this value if this is wrong.
Config: Warning: Key EIDD3N is not set. Using '40' as the default. Please configure this value if this is wrong.
Config: Warning: Key EIDD4R is not set. Using '160' as the default. Please configure this value if this is wrong.
Config: Warning: Key EIDD4W is not set. Using '165' as the default. Please configure this value if this is wrong.
Config: Warning: Key EIDD5B is not set. Using '200' as the default. Please configure this value if this is wrong.
Config: Warning: Key EIDD6 is not set. Using '12' as the default. Please configure this value if this is wrong.
Config: Warning: Key Eopenrd is not set. Using '1.08108' as the default. Please configure this value if this is wrong.
Config: Warning: Key Erd is not set. Using '3.4054' as the default. Please configure this value if this is wrong.
Config: Warning: Key Eref is not set. Using '38.5585' as the default. Please configure this value if this is wrong.
Config: Warning: Key Ewr is not set. Using '1.02375' as the default. Please configure this value if this is wrong.
Config: Warning: Key Ewrpb is not set. Using '0.00199951' as the default. Please configure this value if this is wrong.
Config: Warning: Key Eactstdby is not set. Using '0.09009' as the default. Please configure this value if this is wrong.
Config: Warning: Key Eprestdby is not set. Using '0.083333' as the default. Please configure this value if this is wrong.
Config: Warning: Key Epda is not set. Using '0' as the default. Please configure this value if this is wrong.
Config: Warning: Key Epdpf is not set. Using '0' as the default. Please configure this value if this is wrong.
Config: Warning: Key Epdps is not set. Using '0' as the default. Please configure this value if this is wrong.
Config: Warning: Key Voltage is not set. Using '1.5' as the default. Please configure this value if this is wrong.
Config: Warning: Key Rtt_nom is not set. Using '30' as the default. Please configure this value if this is wrong.
Config: Warning: Key Rtt_wr is not set. Using '60' as the default. Please configure this value if this is wrong.
Config: Warning: Key Rtt_cont is not set. Using '75' as the default. Please configure this value if this is wrong.
Config: Warning: Key VDDQ is not set. Using '1.5' as the default. Please configure this value if this is wrong.
Config: Warning: Key VSSQ is not set. Using '0' as the default. Please configure this value if this is wrong.
Config: Warning: Key RanksPerDIMM is not set. Using '1' as the default. Please configure this value if this is wrong.
Config: Warning: Key EnduranceModel is not set. Using 'NullModel' as the default. Please configure this value if this is wrong.
Config: Warning: Key DataEncoder is not set. Using 'default' as the default. Please configure this value if this is wrong.
Config: Warning: Key EnergyModel is not set. Using 'current' as the default. Please configure this value if this is wrong.
Config: Warning: Key UseLowPower is not set. Using 'true' as the default. Please configure this value if this is wrong.
Config: Warning: Key PowerDownMode is not set. Using 'FASTEXIT' as the default. Please configure this value if this is wrong.
Config: Warning: Key InitPD is not set. Using 'false' as the default. Please configure this value if this is wrong.
Config: Warning: Key PrintGraphs is not set. Using 'false' as the default. Please configure this value if this is wrong.
Config: Warning: Key PrintAllDevices is not set. Using 'false' as the default. Please configure this value if this is wrong.
Config: Warning: Key PrintConfig is not set. Using 'false' as the default. Please configure this value if this is wrong.
Config: Warning: Key PrintPreTrace is not set. Using 'false' as the default. Please configure this value if this is wrong.
Config: Warning: Key EchoPreTrace is not set. Using 'false' as the default. Please configure this value if this is wrong.
Config: Warning: Key RefreshRows is not set. Using '4' as the default. Please configure this value if this is wrong.
Config: Warning: Key UseRefresh is not set. Using 'true' as the default. Please configure this value if this is wrong.
Config: Warning: Key StaggerRefresh is not set. Using 'false' as the default. Please configure this value if this is wrong.
Config: Warning: Key UsePrecharge is not set. Using 'true' as the default. Please configure this value if this is wrong.
Config: Warning: Key OffChipLatency is not set. Using '10' as the default. Please configure this value if this is wrong.
Config: Warning: Key PeriodicStatsInterval is not set. Using '0' as the default. Please configure this value if this is wrong.
Config: Warning: Key RAW is not set. Using '4' as the default. Please configure this value if this is wrong.
Config: Warning: Key RBSize is not set. Using '32' as the default. Please configure this value if this is wrong.
Config: Warning: Key tRDPDEN is not set. Using '24' as the default. Please configure this value if this is wrong.
Config: Warning: Key tWRPDEN is not set. Using '19' as the default. Please configure this value if this is wrong.
Config: Warning: Key tWRAPDEN is not set. Using '22' as the default. Please configure this value if this is wrong.
Config: Warning: Key ClosePage is not set. Using '1' as the default. Please configure this value if this is wrong.
Config: Warning: Key ScheduleScheme is not set. Using '1' as the default. Please configure this value if this is wrong.
Config: Warning: Key HighWaterMark is not set. Using '32' as the default. Please configure this value if this is wrong.
Config: Warning: Key LowWaterMark is not set. Using '16' as the default. Please configure this value if this is wrong.
Config: Warning: Key BanksPerRefresh is not set. Using '8' as the default. Please configure this value if this is wrong.
Config: Warning: Key DelayedRefreshThreshold is not set. Using '1' as the default. Please configure this value if this is wrong.
Config: Warning: Key AddressMappingScheme is not set. Using 'R:SA:RK:BK:CH:C' as the default. Please configure this value if this is wrong.
Config: Warning: Key MemoryPrefetcher is not set. Using 'none' as the default. Please configure this value if this is wrong.
Config: Warning: Key PrefetchBufferSize is not set. Using '32' as the default. Please configure this value if this is wrong.
Config: Warning: Key MLCLevels is not set. Using '1' as the default. Please configure this value if this is wrong.
Config: Warning: Key WPVariance is not set. Using '1' as the default. Please configure this value if this is wrong.
Config: Warning: Key UniformWrites is not set. Using 'true' as the default. Please configure this value if this is wrong.
Config: Warning: Key WriteAllBits is not set. Using 'true' as the default. Please configure this value if this is wrong.
Config: Warning: Key Ereset is not set. Using '0.054331' as the default. Please configure this value if this is wrong.
Config: Warning: Key Eset is not set. Using '0.101581' as the default. Please configure this value if this is wrong.
Config: Warning: Key nWP00 is not set. Using '0' as the default. Please configure this value if this is wrong.
Config: Warning: Key nWP01 is not set. Using '7' as the default. Please configure this value if this is wrong.
Config: Warning: Key nWP10 is not set. Using '5' as the default. Please configure this value if this is wrong.
Config: Warning: Key nWP11 is not set. Using '1' as the default. Please configure this value if this is wrong.
Config: Warning: Key WPMaxVariance is not set. Using '2' as the default. Please configure this value if this is wrong.
Config: Warning: Key DeadlockTimer is not set. Using '10000000' as the default. Please configure this value if this is wrong.
Config: Warning: Key EnableDebug is not set. Using 'false' as the default. Please configure this value if this is wrong.
Config: Warning: Key WritePausing is not set. Using 'false' as the default. Please configure this value if this is wrong.
Config: Warning: Key PauseThreshold is not set. Using '0.4' as the default. Please configure this value if this is wrong.
Config: Warning: Key MaxCancellations is not set. Using '4' as the default. Please configure this value if this is wrong.
cache line size is 64
NVMain: GlobalEventQueue: Added a memory subsystem running at 666MHz. My frequency is 3200MHz.
Config: Warning: Key BusWidth is not set. Using '64' as the default. Please configure this value if this is wrong.
Config: Warning: Key DeviceWidth is not set. Using '8' as the default. Please configure this value if this is wrong.
Config: Warning: Key RATE is not set. Using '2' as the default. Please configure this value if this is wrong.
Config: Warning: Key EIDD0 is not set. Using '85' as the default. Please configure this value if this is wrong.
Config: Warning: Key EIDD1 is not set. Using '54' as the default. Please configure this value if this is wrong.
Config: Warning: Key EIDD2P0 is not set. Using '30' as the default. Please configure this value if this is wrong.
Config: Warning: Key EIDD2P1 is not set. Using '30' as the default. Please configure this value if this is wrong.
Config: Warning: Key EIDD2N is not set. Using '37' as the default. Please configure this value if this is wrong.
Config: Warning: Key EIDD3P is not set. Using '35' as the default. Please configure this value if this is wrong.
Config: Warning: Key EIDD3N is not set. Using '40' as the default. Please configure this value if this is wrong.
Config: Warning: Key EIDD4R is not set. Using '160' as the default. Please configure this value if this is wrong.
Config: Warning: Key EIDD4W is not set. Using '165' as the default. Please configure this value if this is wrong.
Config: Warning: Key EIDD5B is not set. Using '200' as the default. Please configure this value if this is wrong.
Config: Warning: Key EIDD6 is not set. Using '12' as the default. Please configure this value if this is wrong.
Config: Warning: Key Eopenrd is not set. Using '1.08108' as the default. Please configure this value if this is wrong.
Config: Warning: Key Erd is not set. Using '3.4054' as the default. Please configure this value if this is wrong.
Config: Warning: Key Eref is not set. Using '38.5585' as the default. Please configure this value if this is wrong.
Config: Warning: Key Ewr is not set. Using '1.02375' as the default. Please configure this value if this is wrong.
Config: Warning: Key Ewrpb is not set. Using '0.00199951' as the default. Please configure this value if this is wrong.
Config: Warning: Key Eactstdby is not set. Using '0.09009' as the default. Please configure this value if this is wrong.
Config: Warning: Key Eprestdby is not set. Using '0.083333' as the default. Please configure this value if this is wrong.
Config: Warning: Key Epda is not set. Using '0' as the default. Please configure this value if this is wrong.
Config: Warning: Key Epdpf is not set. Using '0' as the default. Please configure this value if this is wrong.
Config: Warning: Key Epdps is not set. Using '0' as the default. Please configure this value if this is wrong.
Config: Warning: Key Voltage is not set. Using '1.5' as the default. Please configure this value if this is wrong.
Config: Warning: Key Rtt_nom is not set. Using '30' as the default. Please configure this value if this is wrong.
Config: Warning: Key Rtt_wr is not set. Using '60' as the default. Please configure this value if this is wrong.
Config: Warning: Key Rtt_cont is not set. Using '75' as the default. Please configure this value if this is wrong.
Config: Warning: Key VDDQ is not set. Using '1.5' as the default. Please configure this value if this is wrong.
Config: Warning: Key VSSQ is not set. Using '0' as the default. Please configure this value if this is wrong.
Config: Warning: Key RanksPerDIMM is not set. Using '1' as the default. Please configure this value if this is wrong.
Config: Warning: Key EnduranceModel is not set. Using 'NullModel' as the default. Please configure this value if this is wrong.
Config: Warning: Key DataEncoder is not set. Using 'default' as the default. Please configure this value if this is wrong.
Config: Warning: Key EnergyModel is not set. Using 'current' as the default. Please configure this value if this is wrong.
Config: Warning: Key UseLowPower is not set. Using 'true' as the default. Please configure this value if this is wrong.
Config: Warning: Key PowerDownMode is not set. Using 'FASTEXIT' as the default. Please configure this value if this is wrong.
Config: Warning: Key InitPD is not set. Using 'false' as the default. Please configure this value if this is wrong.
Config: Warning: Key PrintGraphs is not set. Using 'false' as the default. Please configure this value if this is wrong.
Config: Warning: Key PrintAllDevices is not set. Using 'false' as the default. Please configure this value if this is wrong.
Config: Warning: Key PrintConfig is not set. Using 'false' as the default. Please configure this value if this is wrong.
Config: Warning: Key PrintPreTrace is not set. Using 'false' as the default. Please configure this value if this is wrong.
Config: Warning: Key RefreshRows is not set. Using '4' as the default. Please configure this value if this is wrong.
Config: Warning: Key UseRefresh is not set. Using 'true' as the default. Please configure this value if this is wrong.
Config: Warning: Key StaggerRefresh is not set. Using 'false' as the default. Please configure this value if this is wrong.
Config: Warning: Key UsePrecharge is not set. Using 'true' as the default. Please configure this value if this is wrong.
Config: Warning: Key OffChipLatency is not set. Using '10' as the default. Please configure this value if this is wrong.
Config: Warning: Key PeriodicStatsInterval is not set. Using '0' as the default. Please configure this value if this is wrong.
Config: Warning: Key RAW is not set. Using '4' as the default. Please configure this value if this is wrong.
Config: Warning: Key RBSize is not set. Using '32' as the default. Please configure this value if this is wrong.
Config: Warning: Key tRDPDEN is not set. Using '24' as the default. Please configure this value if this is wrong.
Config: Warning: Key tWRPDEN is not set. Using '19' as the default. Please configure this value if this is wrong.
Config: Warning: Key tWRAPDEN is not set. Using '22' as the default. Please configure this value if this is wrong.
Config: Warning: Key ClosePage is not set. Using '1' as the default. Please configure this value if this is wrong.
Config: Warning: Key ScheduleScheme is not set. Using '1' as the default. Please configure this value if this is wrong.
Config: Warning: Key HighWaterMark is not set. Using '32' as the default. Please configure this value if this is wrong.
Config: Warning: Key LowWaterMark is not set. Using '16' as the default. Please configure this value if this is wrong.
Config: Warning: Key BanksPerRefresh is not set. Using '8' as the default. Please configure this value if this is wrong.
Config: Warning: Key DelayedRefreshThreshold is not set. Using '1' as the default. Please configure this value if this is wrong.
Config: Warning: Key MemoryPrefetcher is not set. Using 'none' as the default. Please configure this value if this is wrong.
Config: Warning: Key PrefetchBufferSize is not set. Using '32' as the default. Please configure this value if this is wrong.
Config: Warning: Key MLCLevels is not set. Using '1' as the default. Please configure this value if this is wrong.
Config: Warning: Key WPVariance is not set. Using '1' as the default. Please configure this value if this is wrong.
Config: Warning: Key UniformWrites is not set. Using 'true' as the default. Please configure this value if this is wrong.
Config: Warning: Key WriteAllBits is not set. Using 'true' as the default. Please configure this value if this is wrong.
Config: Warning: Key Ereset is not set. Using '0.054331' as the default. Please configure this value if this is wrong.
Config: Warning: Key Eset is not set. Using '0.101581' as the default. Please configure this value if this is wrong.
Config: Warning: Key nWP00 is not set. Using '0' as the default. Please configure this value if this is wrong.
Config: Warning: Key nWP01 is not set. Using '7' as the default. Please configure this value if this is wrong.
Config: Warning: Key nWP10 is not set. Using '5' as the default. Please configure this value if this is wrong.
Config: Warning: Key nWP11 is not set. Using '1' as the default. Please configure this value if this is wrong.
Config: Warning: Key WPMaxVariance is not set. Using '2' as the default. Please configure this value if this is wrong.
Config: Warning: Key DeadlockTimer is not set. Using '10000000' as the default. Please configure this value if this is wrong.
Config: Warning: Key EnableDebug is not set. Using 'false' as the default. Please configure this value if this is wrong.
Config: Warning: Key WritePausing is not set. Using 'false' as the default. Please configure this value if this is wrong.
Config: Warning: Key PauseThreshold is not set. Using '0.4' as the default. Please configure this value if this is wrong.
Config: Warning: Key MaxCancellations is not set. Using '4' as the default. Please configure this value if this is wrong.
Warning: Sim Interface should be allocated before configuration!
NVMain: the address mapping order is 
	Sub-Array 6
	Row 5
	Column 2
	Bank 3
	Rank 4
	Channel 1
Reading channel config file: nvmain/hdrc/NVM_channel.config
Created a First Ready First Come First Serve memory controller!
Config: Warning: Key EIDD0 is not set. Using '85' as the default. Please configure this value if this is wrong.
Config: Warning: Key EIDD1 is not set. Using '54' as the default. Please configure this value if this is wrong.
Config: Warning: Key EIDD2P0 is not set. Using '30' as the default. Please configure this value if this is wrong.
Config: Warning: Key EIDD2P1 is not set. Using '30' as the default. Please configure this value if this is wrong.
Config: Warning: Key EIDD2N is not set. Using '37' as the default. Please configure this value if this is wrong.
Config: Warning: Key EIDD3P is not set. Using '35' as the default. Please configure this value if this is wrong.
Config: Warning: Key EIDD3N is not set. Using '40' as the default. Please configure this value if this is wrong.
Config: Warning: Key EIDD4R is not set. Using '160' as the default. Please configure this value if this is wrong.
Config: Warning: Key EIDD4W is not set. Using '165' as the default. Please configure this value if this is wrong.
Config: Warning: Key EIDD5B is not set. Using '200' as the default. Please configure this value if this is wrong.
Config: Warning: Key EIDD6 is not set. Using '12' as the default. Please configure this value if this is wrong.
Config: Warning: Key Eactstdby is not set. Using '0.09009' as the default. Please configure this value if this is wrong.
Config: Warning: Key Eprestdby is not set. Using '0.083333' as the default. Please configure this value if this is wrong.
Config: Warning: Key Rtt_nom is not set. Using '30' as the default. Please configure this value if this is wrong.
Config: Warning: Key Rtt_wr is not set. Using '60' as the default. Please configure this value if this is wrong.
Config: Warning: Key Rtt_cont is not set. Using '75' as the default. Please configure this value if this is wrong.
Config: Warning: Key VDDQ is not set. Using '1.5' as the default. Please configure this value if this is wrong.
Config: Warning: Key VSSQ is not set. Using '0' as the default. Please configure this value if this is wrong.
Config: Warning: Key RanksPerDIMM is not set. Using '1' as the default. Please configure this value if this is wrong.
Config: Warning: Key DataEncoder is not set. Using 'default' as the default. Please configure this value if this is wrong.
Config: Warning: Key UseLowPower is not set. Using 'true' as the default. Please configure this value if this is wrong.
Config: Warning: Key PowerDownMode is not set. Using 'FASTEXIT' as the default. Please configure this value if this is wrong.
Config: Warning: Key PrintAllDevices is not set. Using 'false' as the default. Please configure this value if this is wrong.
Config: Warning: Key PrintConfig is not set. Using 'false' as the default. Please configure this value if this is wrong.
Config: Warning: Key StaggerRefresh is not set. Using 'false' as the default. Please configure this value if this is wrong.
Config: Warning: Key UsePrecharge is not set. Using 'true' as the default. Please configure this value if this is wrong.
Config: Warning: Key OffChipLatency is not set. Using '10' as the default. Please configure this value if this is wrong.
Config: Warning: Key RBSize is not set. Using '32' as the default. Please configure this value if this is wrong.
Config: Warning: Key MemoryPrefetcher is not set. Using 'none' as the default. Please configure this value if this is wrong.
Config: Warning: Key PrefetchBufferSize is not set. Using '32' as the default. Please configure this value if this is wrong.
Config: Warning: Key MLCLevels is not set. Using '1' as the default. Please configure this value if this is wrong.
Config: Warning: Key WPVariance is not set. Using '1' as the default. Please configure this value if this is wrong.
Config: Warning: Key UniformWrites is not set. Using 'true' as the default. Please configure this value if this is wrong.
Config: Warning: Key WriteAllBits is not set. Using 'true' as the default. Please configure this value if this is wrong.
Config: Warning: Key Ereset is not set. Using '0.054331' as the default. Please configure this value if this is wrong.
Config: Warning: Key Eset is not set. Using '0.101581' as the default. Please configure this value if this is wrong.
Config: Warning: Key nWP00 is not set. Using '0' as the default. Please configure this value if this is wrong.
Config: Warning: Key nWP01 is not set. Using '7' as the default. Please configure this value if this is wrong.
Config: Warning: Key nWP10 is not set. Using '5' as the default. Please configure this value if this is wrong.
Config: Warning: Key nWP11 is not set. Using '1' as the default. Please configure this value if this is wrong.
Config: Warning: Key WPMaxVariance is not set. Using '2' as the default. Please configure this value if this is wrong.
Config: Warning: Key DeadlockTimer is not set. Using '10000000' as the default. Please configure this value if this is wrong.
Config: Warning: Key EnableDebug is not set. Using 'false' as the default. Please configure this value if this is wrong.
Config: Warning: Key WritePausing is not set. Using 'false' as the default. Please configure this value if this is wrong.
Config: Warning: Key PauseThreshold is not set. Using '0.4' as the default. Please configure this value if this is wrong.
Config: Warning: Key MaxCancellations is not set. Using '4' as the default. Please configure this value if this is wrong.
Config: Warning: Key Decoder is not set. Using '' as the default. Please configure this value if this is wrong.
Config: Warning: Key RankType is not set. Using '' as the default. Please configure this value if this is wrong.
Creating 8 banks in all 8 devices.
Config: Warning: Key BankType is not set. Using '' as the default. Please configure this value if this is wrong.
NVMain: the address mapping order is 
	Sub-Array 6
	Row 5
	Column 2
	Bank 3
	Rank 4
	Channel 1
MainMemory.channel0.FRFCFS capacity is 2048 MB.
Creating 8 command queues.
Reading channel config file: nvmain/hdrc/NVM_channel.config
Created a First Ready First Come First Serve memory controller!
Config: Warning: Key EIDD0 is not set. Using '85' as the default. Please configure this value if this is wrong.
Config: Warning: Key EIDD1 is not set. Using '54' as the default. Please configure this value if this is wrong.
Config: Warning: Key EIDD2P0 is not set. Using '30' as the default. Please configure this value if this is wrong.
Config: Warning: Key EIDD2P1 is not set. Using '30' as the default. Please configure this value if this is wrong.
Config: Warning: Key EIDD2N is not set. Using '37' as the default. Please configure this value if this is wrong.
Config: Warning: Key EIDD3P is not set. Using '35' as the default. Please configure this value if this is wrong.
Config: Warning: Key EIDD3N is not set. Using '40' as the default. Please configure this value if this is wrong.
Config: Warning: Key EIDD4R is not set. Using '160' as the default. Please configure this value if this is wrong.
Config: Warning: Key EIDD4W is not set. Using '165' as the default. Please configure this value if this is wrong.
Config: Warning: Key EIDD5B is not set. Using '200' as the default. Please configure this value if this is wrong.
Config: Warning: Key EIDD6 is not set. Using '12' as the default. Please configure this value if this is wrong.
Config: Warning: Key Eactstdby is not set. Using '0.09009' as the default. Please configure this value if this is wrong.
Config: Warning: Key Eprestdby is not set. Using '0.083333' as the default. Please configure this value if this is wrong.
Config: Warning: Key Rtt_nom is not set. Using '30' as the default. Please configure this value if this is wrong.
Config: Warning: Key Rtt_wr is not set. Using '60' as the default. Please configure this value if this is wrong.
Config: Warning: Key Rtt_cont is not set. Using '75' as the default. Please configure this value if this is wrong.
Config: Warning: Key VDDQ is not set. Using '1.5' as the default. Please configure this value if this is wrong.
Config: Warning: Key VSSQ is not set. Using '0' as the default. Please configure this value if this is wrong.
Config: Warning: Key RanksPerDIMM is not set. Using '1' as the default. Please configure this value if this is wrong.
Config: Warning: Key DataEncoder is not set. Using 'default' as the default. Please configure this value if this is wrong.
Config: Warning: Key UseLowPower is not set. Using 'true' as the default. Please configure this value if this is wrong.
Config: Warning: Key PowerDownMode is not set. Using 'FASTEXIT' as the default. Please configure this value if this is wrong.
Config: Warning: Key PrintAllDevices is not set. Using 'false' as the default. Please configure this value if this is wrong.
Config: Warning: Key PrintConfig is not set. Using 'false' as the default. Please configure this value if this is wrong.
Config: Warning: Key StaggerRefresh is not set. Using 'false' as the default. Please configure this value if this is wrong.
Config: Warning: Key UsePrecharge is not set. Using 'true' as the default. Please configure this value if this is wrong.
Config: Warning: Key OffChipLatency is not set. Using '10' as the default. Please configure this value if this is wrong.
Config: Warning: Key RBSize is not set. Using '32' as the default. Please configure this value if this is wrong.
Config: Warning: Key MemoryPrefetcher is not set. Using 'none' as the default. Please configure this value if this is wrong.
Config: Warning: Key PrefetchBufferSize is not set. Using '32' as the default. Please configure this value if this is wrong.
Config: Warning: Key MLCLevels is not set. Using '1' as the default. Please configure this value if this is wrong.
Config: Warning: Key WPVariance is not set. Using '1' as the default. Please configure this value if this is wrong.
Config: Warning: Key UniformWrites is not set. Using 'true' as the default. Please configure this value if this is wrong.
Config: Warning: Key WriteAllBits is not set. Using 'true' as the default. Please configure this value if this is wrong.
Config: Warning: Key Ereset is not set. Using '0.054331' as the default. Please configure this value if this is wrong.
Config: Warning: Key Eset is not set. Using '0.101581' as the default. Please configure this value if this is wrong.
Config: Warning: Key nWP00 is not set. Using '0' as the default. Please configure this value if this is wrong.
Config: Warning: Key nWP01 is not set. Using '7' as the default. Please configure this value if this is wrong.
Config: Warning: Key nWP10 is not set. Using '5' as the default. Please configure this value if this is wrong.
Config: Warning: Key nWP11 is not set. Using '1' as the default. Please configure this value if this is wrong.
Config: Warning: Key WPMaxVariance is not set. Using '2' as the default. Please configure this value if this is wrong.
Config: Warning: Key DeadlockTimer is not set. Using '10000000' as the default. Please configure this value if this is wrong.
Config: Warning: Key EnableDebug is not set. Using 'false' as the default. Please configure this value if this is wrong.
Config: Warning: Key WritePausing is not set. Using 'false' as the default. Please configure this value if this is wrong.
Config: Warning: Key PauseThreshold is not set. Using '0.4' as the default. Please configure this value if this is wrong.
Config: Warning: Key MaxCancellations is not set. Using '4' as the default. Please configure this value if this is wrong.
Config: Warning: Key Decoder is not set. Using '' as the default. Please configure this value if this is wrong.
Config: Warning: Key RankType is not set. Using '' as the default. Please configure this value if this is wrong.
Creating 8 banks in all 8 devices.
Config: Warning: Key BankType is not set. Using '' as the default. Please configure this value if this is wrong.
NVMain: the address mapping order is 
	Sub-Array 6
	Row 5
	Column 2
	Bank 3
	Rank 4
	Channel 1
MainMemory.channel1.FRFCFS capacity is 2048 MB.
Creating 8 command queues.
Reading channel config file: nvmain/hdrc/NVM_channel.config
Created a First Ready First Come First Serve memory controller!
Config: Warning: Key EIDD0 is not set. Using '85' as the default. Please configure this value if this is wrong.
Config: Warning: Key EIDD1 is not set. Using '54' as the default. Please configure this value if this is wrong.
Config: Warning: Key EIDD2P0 is not set. Using '30' as the default. Please configure this value if this is wrong.
Config: Warning: Key EIDD2P1 is not set. Using '30' as the default. Please configure this value if this is wrong.
Config: Warning: Key EIDD2N is not set. Using '37' as the default. Please configure this value if this is wrong.
Config: Warning: Key EIDD3P is not set. Using '35' as the default. Please configure this value if this is wrong.
Config: Warning: Key EIDD3N is not set. Using '40' as the default. Please configure this value if this is wrong.
Config: Warning: Key EIDD4R is not set. Using '160' as the default. Please configure this value if this is wrong.
Config: Warning: Key EIDD4W is not set. Using '165' as the default. Please configure this value if this is wrong.
Config: Warning: Key EIDD5B is not set. Using '200' as the default. Please configure this value if this is wrong.
Config: Warning: Key EIDD6 is not set. Using '12' as the default. Please configure this value if this is wrong.
Config: Warning: Key Eactstdby is not set. Using '0.09009' as the default. Please configure this value if this is wrong.
Config: Warning: Key Eprestdby is not set. Using '0.083333' as the default. Please configure this value if this is wrong.
Config: Warning: Key Rtt_nom is not set. Using '30' as the default. Please configure this value if this is wrong.
Config: Warning: Key Rtt_wr is not set. Using '60' as the default. Please configure this value if this is wrong.
Config: Warning: Key Rtt_cont is not set. Using '75' as the default. Please configure this value if this is wrong.
Config: Warning: Key VDDQ is not set. Using '1.5' as the default. Please configure this value if this is wrong.
Config: Warning: Key VSSQ is not set. Using '0' as the default. Please configure this value if this is wrong.
Config: Warning: Key RanksPerDIMM is not set. Using '1' as the default. Please configure this value if this is wrong.
Config: Warning: Key DataEncoder is not set. Using 'default' as the default. Please configure this value if this is wrong.
Config: Warning: Key UseLowPower is not set. Using 'true' as the default. Please configure this value if this is wrong.
Config: Warning: Key PowerDownMode is not set. Using 'FASTEXIT' as the default. Please configure this value if this is wrong.
Config: Warning: Key PrintAllDevices is not set. Using 'false' as the default. Please configure this value if this is wrong.
Config: Warning: Key PrintConfig is not set. Using 'false' as the default. Please configure this value if this is wrong.
Config: Warning: Key StaggerRefresh is not set. Using 'false' as the default. Please configure this value if this is wrong.
Config: Warning: Key UsePrecharge is not set. Using 'true' as the default. Please configure this value if this is wrong.
Config: Warning: Key OffChipLatency is not set. Using '10' as the default. Please configure this value if this is wrong.
Config: Warning: Key RBSize is not set. Using '32' as the default. Please configure this value if this is wrong.
Config: Warning: Key MemoryPrefetcher is not set. Using 'none' as the default. Please configure this value if this is wrong.
Config: Warning: Key PrefetchBufferSize is not set. Using '32' as the default. Please configure this value if this is wrong.
Config: Warning: Key MLCLevels is not set. Using '1' as the default. Please configure this value if this is wrong.
Config: Warning: Key WPVariance is not set. Using '1' as the default. Please configure this value if this is wrong.
Config: Warning: Key UniformWrites is not set. Using 'true' as the default. Please configure this value if this is wrong.
Config: Warning: Key WriteAllBits is not set. Using 'true' as the default. Please configure this value if this is wrong.
Config: Warning: Key Ereset is not set. Using '0.054331' as the default. Please configure this value if this is wrong.
Config: Warning: Key Eset is not set. Using '0.101581' as the default. Please configure this value if this is wrong.
Config: Warning: Key nWP00 is not set. Using '0' as the default. Please configure this value if this is wrong.
Config: Warning: Key nWP01 is not set. Using '7' as the default. Please configure this value if this is wrong.
Config: Warning: Key nWP10 is not set. Using '5' as the default. Please configure this value if this is wrong.
Config: Warning: Key nWP11 is not set. Using '1' as the default. Please configure this value if this is wrong.
Config: Warning: Key WPMaxVariance is not set. Using '2' as the default. Please configure this value if this is wrong.
Config: Warning: Key DeadlockTimer is not set. Using '10000000' as the default. Please configure this value if this is wrong.
Config: Warning: Key EnableDebug is not set. Using 'false' as the default. Please configure this value if this is wrong.
Config: Warning: Key WritePausing is not set. Using 'false' as the default. Please configure this value if this is wrong.
Config: Warning: Key PauseThreshold is not set. Using '0.4' as the default. Please configure this value if this is wrong.
Config: Warning: Key MaxCancellations is not set. Using '4' as the default. Please configure this value if this is wrong.
Config: Warning: Key Decoder is not set. Using '' as the default. Please configure this value if this is wrong.
Config: Warning: Key RankType is not set. Using '' as the default. Please configure this value if this is wrong.
Creating 8 banks in all 8 devices.
Config: Warning: Key BankType is not set. Using '' as the default. Please configure this value if this is wrong.
NVMain: the address mapping order is 
	Sub-Array 6
	Row 5
	Column 2
	Bank 3
	Rank 4
	Channel 1
MainMemory.channel2.FRFCFS capacity is 2048 MB.
Creating 8 command queues.
Reading channel config file: nvmain/hdrc/NVM_channel.config
Created a First Ready First Come First Serve memory controller!
Config: Warning: Key EIDD0 is not set. Using '85' as the default. Please configure this value if this is wrong.
Config: Warning: Key EIDD1 is not set. Using '54' as the default. Please configure this value if this is wrong.
Config: Warning: Key EIDD2P0 is not set. Using '30' as the default. Please configure this value if this is wrong.
Config: Warning: Key EIDD2P1 is not set. Using '30' as the default. Please configure this value if this is wrong.
Config: Warning: Key EIDD2N is not set. Using '37' as the default. Please configure this value if this is wrong.
Config: Warning: Key EIDD3P is not set. Using '35' as the default. Please configure this value if this is wrong.
Config: Warning: Key EIDD3N is not set. Using '40' as the default. Please configure this value if this is wrong.
Config: Warning: Key EIDD4R is not set. Using '160' as the default. Please configure this value if this is wrong.
Config: Warning: Key EIDD4W is not set. Using '165' as the default. Please configure this value if this is wrong.
Config: Warning: Key EIDD5B is not set. Using '200' as the default. Please configure this value if this is wrong.
Config: Warning: Key EIDD6 is not set. Using '12' as the default. Please configure this value if this is wrong.
Config: Warning: Key Eactstdby is not set. Using '0.09009' as the default. Please configure this value if this is wrong.
Config: Warning: Key Eprestdby is not set. Using '0.083333' as the default. Please configure this value if this is wrong.
Config: Warning: Key Rtt_nom is not set. Using '30' as the default. Please configure this value if this is wrong.
Config: Warning: Key Rtt_wr is not set. Using '60' as the default. Please configure this value if this is wrong.
Config: Warning: Key Rtt_cont is not set. Using '75' as the default. Please configure this value if this is wrong.
Config: Warning: Key VDDQ is not set. Using '1.5' as the default. Please configure this value if this is wrong.
Config: Warning: Key VSSQ is not set. Using '0' as the default. Please configure this value if this is wrong.
Config: Warning: Key RanksPerDIMM is not set. Using '1' as the default. Please configure this value if this is wrong.
Config: Warning: Key DataEncoder is not set. Using 'default' as the default. Please configure this value if this is wrong.
Config: Warning: Key UseLowPower is not set. Using 'true' as the default. Please configure this value if this is wrong.
Config: Warning: Key PowerDownMode is not set. Using 'FASTEXIT' as the default. Please configure this value if this is wrong.
Config: Warning: Key PrintAllDevices is not set. Using 'false' as the default. Please configure this value if this is wrong.
Config: Warning: Key PrintConfig is not set. Using 'false' as the default. Please configure this value if this is wrong.
Config: Warning: Key StaggerRefresh is not set. Using 'false' as the default. Please configure this value if this is wrong.
Config: Warning: Key UsePrecharge is not set. Using 'true' as the default. Please configure this value if this is wrong.
Config: Warning: Key OffChipLatency is not set. Using '10' as the default. Please configure this value if this is wrong.
Config: Warning: Key RBSize is not set. Using '32' as the default. Please configure this value if this is wrong.
Config: Warning: Key MemoryPrefetcher is not set. Using 'none' as the default. Please configure this value if this is wrong.
Config: Warning: Key PrefetchBufferSize is not set. Using '32' as the default. Please configure this value if this is wrong.
Config: Warning: Key MLCLevels is not set. Using '1' as the default. Please configure this value if this is wrong.
Config: Warning: Key WPVariance is not set. Using '1' as the default. Please configure this value if this is wrong.
Config: Warning: Key UniformWrites is not set. Using 'true' as the default. Please configure this value if this is wrong.
Config: Warning: Key WriteAllBits is not set. Using 'true' as the default. Please configure this value if this is wrong.
Config: Warning: Key Ereset is not set. Using '0.054331' as the default. Please configure this value if this is wrong.
Config: Warning: Key Eset is not set. Using '0.101581' as the default. Please configure this value if this is wrong.
Config: Warning: Key nWP00 is not set. Using '0' as the default. Please configure this value if this is wrong.
Config: Warning: Key nWP01 is not set. Using '7' as the default. Please configure this value if this is wrong.
Config: Warning: Key nWP10 is not set. Using '5' as the default. Please configure this value if this is wrong.
Config: Warning: Key nWP11 is not set. Using '1' as the default. Please configure this value if this is wrong.
Config: Warning: Key WPMaxVariance is not set. Using '2' as the default. Please configure this value if this is wrong.
Config: Warning: Key DeadlockTimer is not set. Using '10000000' as the default. Please configure this value if this is wrong.
Config: Warning: Key EnableDebug is not set. Using 'false' as the default. Please configure this value if this is wrong.
Config: Warning: Key WritePausing is not set. Using 'false' as the default. Please configure this value if this is wrong.
Config: Warning: Key PauseThreshold is not set. Using '0.4' as the default. Please configure this value if this is wrong.
Config: Warning: Key MaxCancellations is not set. Using '4' as the default. Please configure this value if this is wrong.
Config: Warning: Key Decoder is not set. Using '' as the default. Please configure this value if this is wrong.
Config: Warning: Key RankType is not set. Using '' as the default. Please configure this value if this is wrong.
Creating 8 banks in all 8 devices.
Config: Warning: Key BankType is not set. Using '' as the default. Please configure this value if this is wrong.
NVMain: the address mapping order is 
	Sub-Array 6
	Row 5
	Column 2
	Bank 3
	Rank 4
	Channel 1
MainMemory.channel3.FRFCFS capacity is 2048 MB.
Creating 8 command queues.
drcChannels is:1
NVMain: the address mapping order is 
	Sub-Array 6
	Row 2
	Column 1
	Bank 3
	Rank 4
	Channel 5
Could not find Decoder named `'. Using default decoder.
Created a First Ready First Come First Serve memory controller!
Config: Warning: Key Rtt_nom is not set. Using '30' as the default. Please configure this value if this is wrong.
Config: Warning: Key Rtt_wr is not set. Using '60' as the default. Please configure this value if this is wrong.
Config: Warning: Key Rtt_cont is not set. Using '75' as the default. Please configure this value if this is wrong.
Config: Warning: Key VDDQ is not set. Using '1.5' as the default. Please configure this value if this is wrong.
Config: Warning: Key VSSQ is not set. Using '0' as the default. Please configure this value if this is wrong.
Config: Warning: Key RanksPerDIMM is not set. Using '1' as the default. Please configure this value if this is wrong.
Config: Warning: Key DataEncoder is not set. Using 'default' as the default. Please configure this value if this is wrong.
Config: Warning: Key PrintAllDevices is not set. Using 'false' as the default. Please configure this value if this is wrong.
Config: Warning: Key PrintConfig is not set. Using 'false' as the default. Please configure this value if this is wrong.
Config: Warning: Key StaggerRefresh is not set. Using 'false' as the default. Please configure this value if this is wrong.
Config: Warning: Key UsePrecharge is not set. Using 'true' as the default. Please configure this value if this is wrong.
Config: Warning: Key OffChipLatency is not set. Using '10' as the default. Please configure this value if this is wrong.
Config: Warning: Key RBSize is not set. Using '32' as the default. Please configure this value if this is wrong.
Config: Warning: Key MemoryPrefetcher is not set. Using 'none' as the default. Please configure this value if this is wrong.
Config: Warning: Key PrefetchBufferSize is not set. Using '32' as the default. Please configure this value if this is wrong.
Config: Warning: Key MLCLevels is not set. Using '1' as the default. Please configure this value if this is wrong.
Config: Warning: Key WPVariance is not set. Using '1' as the default. Please configure this value if this is wrong.
Config: Warning: Key UniformWrites is not set. Using 'true' as the default. Please configure this value if this is wrong.
Config: Warning: Key WriteAllBits is not set. Using 'true' as the default. Please configure this value if this is wrong.
Config: Warning: Key Ereset is not set. Using '0.054331' as the default. Please configure this value if this is wrong.
Config: Warning: Key Eset is not set. Using '0.101581' as the default. Please configure this value if this is wrong.
Config: Warning: Key nWP00 is not set. Using '0' as the default. Please configure this value if this is wrong.
Config: Warning: Key nWP01 is not set. Using '7' as the default. Please configure this value if this is wrong.
Config: Warning: Key nWP10 is not set. Using '5' as the default. Please configure this value if this is wrong.
Config: Warning: Key nWP11 is not set. Using '1' as the default. Please configure this value if this is wrong.
Config: Warning: Key WPMaxVariance is not set. Using '2' as the default. Please configure this value if this is wrong.
Config: Warning: Key DeadlockTimer is not set. Using '10000000' as the default. Please configure this value if this is wrong.
Config: Warning: Key EnableDebug is not set. Using 'false' as the default. Please configure this value if this is wrong.
Config: Warning: Key WritePausing is not set. Using 'false' as the default. Please configure this value if this is wrong.
Config: Warning: Key PauseThreshold is not set. Using '0.4' as the default. Please configure this value if this is wrong.
Config: Warning: Key MaxCancellations is not set. Using '4' as the default. Please configure this value if this is wrong.
Config: Warning: Key Decoder is not set. Using '' as the default. Please configure this value if this is wrong.
Config: Warning: Key RankType is not set. Using '' as the default. Please configure this value if this is wrong.
Creating 8 banks in all 8 devices.
Config: Warning: Key BankType is not set. Using '' as the default. Please configure this value if this is wrong.
NVMain: the address mapping order is 
	Sub-Array 6
	Row 5
	Column 2
	Bank 3
	Rank 4
	Channel 1
hierarch_dram.L0_cache.FRFCFS capacity is 256 MB.
Creating 8 command queues.
**** REAL SIMULATION ****
info: Entering event queue @ 0.  Starting simulation...
Usage: se.py [options]

se.py: error: no such option: -j
gem5 Simulator System.  http://gem5.org
gem5 is copyrighted software; use the --copyright option for details.

gem5 compiled Apr  8 2020 18:16:55
gem5 started Apr 10 2020 12:24:01
gem5 executing on ar443-PC2, pid 1496
command line: ./build/X86/gem5.opt --stats-file=401-0.bzip2-stats-2b.txt ./configs/example/se.py --warmup-insts 10000000 --cpu-type=TimingSimpleCPU --caches --l1d_size=32kB --l1i_size=32kB --l2cache --l2_size=2048kB --l2_assoc=16 --mem-size=16GB --mem-type=NVMainMemory --nvmain-config=nvmain/hdrc/hdrc.config -c /home/ar443/jia/gem5/cpu2006/benchspec/CPU2006/401.bzip2/exe/bzip2_base.amd64-m64-gcc41-nn -o '/home/ar443/jia/gem5/cpu2006/benchspec/CPU2006/401.bzip2/data/all/input/input.combined 200' --input cin --output /home/ar443/jia/gem5/cpu2006/benchspec/CPU2006/401.bzip2/data/ref/output/input.combined.out -I 1000000000 -n 1 -j4

info: Standard input is not a terminal, disabling listeners.
gem5 Simulator System.  http://gem5.org
gem5 is copyrighted software; use the --copyright option for details.

gem5 compiled Apr  8 2020 18:16:55
gem5 started Apr 10 2020 12:27:18
gem5 executing on ar443-PC2, pid 1535
command line: ./build/X86/gem5.opt --stats-file=401-0.bzip2-stats-2b.txt ./configs/example/se.py --warmup-insts 10000000 --cpu-type=TimingSimpleCPU --caches --l1d_size=32kB --l1i_size=32kB --l2cache --l2_size=2048kB --l2_assoc=16 --mem-size=16GB --mem-type=NVMainMemory --nvmain-config=nvmain/hdrc/hdrc.config -c /home/ar443/jia/gem5/cpu2006/benchspec/CPU2006/401.bzip2/exe/bzip2_base.amd64-m64-gcc41-nn -o '/home/ar443/jia/gem5/cpu2006/benchspec/CPU2006/401.bzip2/data/all/input/input.combined 200' --input cin --output /home/ar443/jia/gem5/cpu2006/benchspec/CPU2006/401.bzip2/data/ref/output/input.combined.out -I 1000000000 -n 1

info: Standard input is not a terminal, disabling listeners.
Global frequency set at 1000000000000 ticks per second
NVMainControl: Reading NVMain config file: nvmain/hdrc/hdrc.config.
warn: Sockets disabled, not accepting gdb connections
NVMain: GlobalEventQueue: Added a memory subsystem running at 666MHz. My frequency is 3200MHz.
set config for HierDRAMCache
Config: Warning: Key EIDD0 is not set. Using '85' as the default. Please configure this value if this is wrong.
Config: Warning: Key EIDD1 is not set. Using '54' as the default. Please configure this value if this is wrong.
Config: Warning: Key EIDD2P0 is not set. Using '30' as the default. Please configure this value if this is wrong.
Config: Warning: Key EIDD2P1 is not set. Using '30' as the default. Please configure this value if this is wrong.
Config: Warning: Key EIDD2N is not set. Using '37' as the default. Please configure this value if this is wrong.
Config: Warning: Key EIDD3P is not set. Using '35' as the default. Please configure this value if this is wrong.
Config: Warning: Key EIDD3N is not set. Using '40' as the default. Please configure this value if this is wrong.
Config: Warning: Key EIDD4R is not set. Using '160' as the default. Please configure this value if this is wrong.
Config: Warning: Key EIDD4W is not set. Using '165' as the default. Please configure this value if this is wrong.
Config: Warning: Key EIDD5B is not set. Using '200' as the default. Please configure this value if this is wrong.
Config: Warning: Key EIDD6 is not set. Using '12' as the default. Please configure this value if this is wrong.
Config: Warning: Key Eopenrd is not set. Using '1.08108' as the default. Please configure this value if this is wrong.
Config: Warning: Key Erd is not set. Using '3.4054' as the default. Please configure this value if this is wrong.
Config: Warning: Key Eref is not set. Using '38.5585' as the default. Please configure this value if this is wrong.
Config: Warning: Key Ewr is not set. Using '1.02375' as the default. Please configure this value if this is wrong.
Config: Warning: Key Ewrpb is not set. Using '0.00199951' as the default. Please configure this value if this is wrong.
Config: Warning: Key Eactstdby is not set. Using '0.09009' as the default. Please configure this value if this is wrong.
Config: Warning: Key Eprestdby is not set. Using '0.083333' as the default. Please configure this value if this is wrong.
Config: Warning: Key Epda is not set. Using '0' as the default. Please configure this value if this is wrong.
Config: Warning: Key Epdpf is not set. Using '0' as the default. Please configure this value if this is wrong.
Config: Warning: Key Epdps is not set. Using '0' as the default. Please configure this value if this is wrong.
Config: Warning: Key Voltage is not set. Using '1.5' as the default. Please configure this value if this is wrong.
Config: Warning: Key Rtt_nom is not set. Using '30' as the default. Please configure this value if this is wrong.
Config: Warning: Key Rtt_wr is not set. Using '60' as the default. Please configure this value if this is wrong.
Config: Warning: Key Rtt_cont is not set. Using '75' as the default. Please configure this value if this is wrong.
Config: Warning: Key VDDQ is not set. Using '1.5' as the default. Please configure this value if this is wrong.
Config: Warning: Key VSSQ is not set. Using '0' as the default. Please configure this value if this is wrong.
Config: Warning: Key RanksPerDIMM is not set. Using '1' as the default. Please configure this value if this is wrong.
Config: Warning: Key EnduranceModel is not set. Using 'NullModel' as the default. Please configure this value if this is wrong.
Config: Warning: Key DataEncoder is not set. Using 'default' as the default. Please configure this value if this is wrong.
Config: Warning: Key EnergyModel is not set. Using 'current' as the default. Please configure this value if this is wrong.
Config: Warning: Key UseLowPower is not set. Using 'true' as the default. Please configure this value if this is wrong.
Config: Warning: Key PowerDownMode is not set. Using 'FASTEXIT' as the default. Please configure this value if this is wrong.
Config: Warning: Key InitPD is not set. Using 'false' as the default. Please configure this value if this is wrong.
Config: Warning: Key PrintGraphs is not set. Using 'false' as the default. Please configure this value if this is wrong.
Config: Warning: Key PrintAllDevices is not set. Using 'false' as the default. Please configure this value if this is wrong.
Config: Warning: Key PrintConfig is not set. Using 'false' as the default. Please configure this value if this is wrong.
Config: Warning: Key PrintPreTrace is not set. Using 'false' as the default. Please configure this value if this is wrong.
Config: Warning: Key EchoPreTrace is not set. Using 'false' as the default. Please configure this value if this is wrong.
Config: Warning: Key RefreshRows is not set. Using '4' as the default. Please configure this value if this is wrong.
Config: Warning: Key UseRefresh is not set. Using 'true' as the default. Please configure this value if this is wrong.
Config: Warning: Key StaggerRefresh is not set. Using 'false' as the default. Please configure this value if this is wrong.
Config: Warning: Key UsePrecharge is not set. Using 'true' as the default. Please configure this value if this is wrong.
Config: Warning: Key OffChipLatency is not set. Using '10' as the default. Please configure this value if this is wrong.
Config: Warning: Key PeriodicStatsInterval is not set. Using '0' as the default. Please configure this value if this is wrong.
Config: Warning: Key RAW is not set. Using '4' as the default. Please configure this value if this is wrong.
Config: Warning: Key RBSize is not set. Using '32' as the default. Please configure this value if this is wrong.
Config: Warning: Key tRDPDEN is not set. Using '24' as the default. Please configure this value if this is wrong.
Config: Warning: Key tWRPDEN is not set. Using '19' as the default. Please configure this value if this is wrong.
Config: Warning: Key tWRAPDEN is not set. Using '22' as the default. Please configure this value if this is wrong.
Config: Warning: Key ClosePage is not set. Using '1' as the default. Please configure this value if this is wrong.
Config: Warning: Key ScheduleScheme is not set. Using '1' as the default. Please configure this value if this is wrong.
Config: Warning: Key HighWaterMark is not set. Using '32' as the default. Please configure this value if this is wrong.
Config: Warning: Key LowWaterMark is not set. Using '16' as the default. Please configure this value if this is wrong.
Config: Warning: Key BanksPerRefresh is not set. Using '8' as the default. Please configure this value if this is wrong.
Config: Warning: Key DelayedRefreshThreshold is not set. Using '1' as the default. Please configure this value if this is wrong.
Config: Warning: Key AddressMappingScheme is not set. Using 'R:SA:RK:BK:CH:C' as the default. Please configure this value if this is wrong.
Config: Warning: Key MemoryPrefetcher is not set. Using 'none' as the default. Please configure this value if this is wrong.
Config: Warning: Key PrefetchBufferSize is not set. Using '32' as the default. Please configure this value if this is wrong.
Config: Warning: Key MLCLevels is not set. Using '1' as the default. Please configure this value if this is wrong.
Config: Warning: Key WPVariance is not set. Using '1' as the default. Please configure this value if this is wrong.
Config: Warning: Key UniformWrites is not set. Using 'true' as the default. Please configure this value if this is wrong.
Config: Warning: Key WriteAllBits is not set. Using 'true' as the default. Please configure this value if this is wrong.
Config: Warning: Key Ereset is not set. Using '0.054331' as the default. Please configure this value if this is wrong.
Config: Warning: Key Eset is not set. Using '0.101581' as the default. Please configure this value if this is wrong.
Config: Warning: Key nWP00 is not set. Using '0' as the default. Please configure this value if this is wrong.
Config: Warning: Key nWP01 is not set. Using '7' as the default. Please configure this value if this is wrong.
Config: Warning: Key nWP10 is not set. Using '5' as the default. Please configure this value if this is wrong.
Config: Warning: Key nWP11 is not set. Using '1' as the default. Please configure this value if this is wrong.
Config: Warning: Key WPMaxVariance is not set. Using '2' as the default. Please configure this value if this is wrong.
Config: Warning: Key DeadlockTimer is not set. Using '10000000' as the default. Please configure this value if this is wrong.
Config: Warning: Key EnableDebug is not set. Using 'false' as the default. Please configure this value if this is wrong.
Config: Warning: Key WritePausing is not set. Using 'false' as the default. Please configure this value if this is wrong.
Config: Warning: Key PauseThreshold is not set. Using '0.4' as the default. Please configure this value if this is wrong.
Config: Warning: Key MaxCancellations is not set. Using '4' as the default. Please configure this value if this is wrong.
cache line size is 64
NVMain: GlobalEventQueue: Added a memory subsystem running at 666MHz. My frequency is 3200MHz.
Config: Warning: Key BusWidth is not set. Using '64' as the default. Please configure this value if this is wrong.
Config: Warning: Key DeviceWidth is not set. Using '8' as the default. Please configure this value if this is wrong.
Config: Warning: Key RATE is not set. Using '2' as the default. Please configure this value if this is wrong.
Config: Warning: Key EIDD0 is not set. Using '85' as the default. Please configure this value if this is wrong.
Config: Warning: Key EIDD1 is not set. Using '54' as the default. Please configure this value if this is wrong.
Config: Warning: Key EIDD2P0 is not set. Using '30' as the default. Please configure this value if this is wrong.
Config: Warning: Key EIDD2P1 is not set. Using '30' as the default. Please configure this value if this is wrong.
Config: Warning: Key EIDD2N is not set. Using '37' as the default. Please configure this value if this is wrong.
Config: Warning: Key EIDD3P is not set. Using '35' as the default. Please configure this value if this is wrong.
Config: Warning: Key EIDD3N is not set. Using '40' as the default. Please configure this value if this is wrong.
Config: Warning: Key EIDD4R is not set. Using '160' as the default. Please configure this value if this is wrong.
Config: Warning: Key EIDD4W is not set. Using '165' as the default. Please configure this value if this is wrong.
Config: Warning: Key EIDD5B is not set. Using '200' as the default. Please configure this value if this is wrong.
Config: Warning: Key EIDD6 is not set. Using '12' as the default. Please configure this value if this is wrong.
Config: Warning: Key Eopenrd is not set. Using '1.08108' as the default. Please configure this value if this is wrong.
Config: Warning: Key Erd is not set. Using '3.4054' as the default. Please configure this value if this is wrong.
Config: Warning: Key Eref is not set. Using '38.5585' as the default. Please configure this value if this is wrong.
Config: Warning: Key Ewr is not set. Using '1.02375' as the default. Please configure this value if this is wrong.
Config: Warning: Key Ewrpb is not set. Using '0.00199951' as the default. Please configure this value if this is wrong.
Config: Warning: Key Eactstdby is not set. Using '0.09009' as the default. Please configure this value if this is wrong.
Config: Warning: Key Eprestdby is not set. Using '0.083333' as the default. Please configure this value if this is wrong.
Config: Warning: Key Epda is not set. Using '0' as the default. Please configure this value if this is wrong.
Config: Warning: Key Epdpf is not set. Using '0' as the default. Please configure this value if this is wrong.
Config: Warning: Key Epdps is not set. Using '0' as the default. Please configure this value if this is wrong.
Config: Warning: Key Voltage is not set. Using '1.5' as the default. Please configure this value if this is wrong.
Config: Warning: Key Rtt_nom is not set. Using '30' as the default. Please configure this value if this is wrong.
Config: Warning: Key Rtt_wr is not set. Using '60' as the default. Please configure this value if this is wrong.
Config: Warning: Key Rtt_cont is not set. Using '75' as the default. Please configure this value if this is wrong.
Config: Warning: Key VDDQ is not set. Using '1.5' as the default. Please configure this value if this is wrong.
Config: Warning: Key VSSQ is not set. Using '0' as the default. Please configure this value if this is wrong.
Config: Warning: Key RanksPerDIMM is not set. Using '1' as the default. Please configure this value if this is wrong.
Config: Warning: Key EnduranceModel is not set. Using 'NullModel' as the default. Please configure this value if this is wrong.
Config: Warning: Key DataEncoder is not set. Using 'default' as the default. Please configure this value if this is wrong.
Config: Warning: Key EnergyModel is not set. Using 'current' as the default. Please configure this value if this is wrong.
Config: Warning: Key UseLowPower is not set. Using 'true' as the default. Please configure this value if this is wrong.
Config: Warning: Key PowerDownMode is not set. Using 'FASTEXIT' as the default. Please configure this value if this is wrong.
Config: Warning: Key InitPD is not set. Using 'false' as the default. Please configure this value if this is wrong.
Config: Warning: Key PrintGraphs is not set. Using 'false' as the default. Please configure this value if this is wrong.
Config: Warning: Key PrintAllDevices is not set. Using 'false' as the default. Please configure this value if this is wrong.
Config: Warning: Key PrintConfig is not set. Using 'false' as the default. Please configure this value if this is wrong.
Config: Warning: Key PrintPreTrace is not set. Using 'false' as the default. Please configure this value if this is wrong.
Config: Warning: Key RefreshRows is not set. Using '4' as the default. Please configure this value if this is wrong.
Config: Warning: Key UseRefresh is not set. Using 'true' as the default. Please configure this value if this is wrong.
Config: Warning: Key StaggerRefresh is not set. Using 'false' as the default. Please configure this value if this is wrong.
Config: Warning: Key UsePrecharge is not set. Using 'true' as the default. Please configure this value if this is wrong.
Config: Warning: Key OffChipLatency is not set. Using '10' as the default. Please configure this value if this is wrong.
Config: Warning: Key PeriodicStatsInterval is not set. Using '0' as the default. Please configure this value if this is wrong.
Config: Warning: Key RAW is not set. Using '4' as the default. Please configure this value if this is wrong.
Config: Warning: Key RBSize is not set. Using '32' as the default. Please configure this value if this is wrong.
Config: Warning: Key tRDPDEN is not set. Using '24' as the default. Please configure this value if this is wrong.
Config: Warning: Key tWRPDEN is not set. Using '19' as the default. Please configure this value if this is wrong.
Config: Warning: Key tWRAPDEN is not set. Using '22' as the default. Please configure this value if this is wrong.
Config: Warning: Key ClosePage is not set. Using '1' as the default. Please configure this value if this is wrong.
Config: Warning: Key ScheduleScheme is not set. Using '1' as the default. Please configure this value if this is wrong.
Config: Warning: Key HighWaterMark is not set. Using '32' as the default. Please configure this value if this is wrong.
Config: Warning: Key LowWaterMark is not set. Using '16' as the default. Please configure this value if this is wrong.
Config: Warning: Key BanksPerRefresh is not set. Using '8' as the default. Please configure this value if this is wrong.
Config: Warning: Key DelayedRefreshThreshold is not set. Using '1' as the default. Please configure this value if this is wrong.
Config: Warning: Key MemoryPrefetcher is not set. Using 'none' as the default. Please configure this value if this is wrong.
Config: Warning: Key PrefetchBufferSize is not set. Using '32' as the default. Please configure this value if this is wrong.
Config: Warning: Key MLCLevels is not set. Using '1' as the default. Please configure this value if this is wrong.
Config: Warning: Key WPVariance is not set. Using '1' as the default. Please configure this value if this is wrong.
Config: Warning: Key UniformWrites is not set. Using 'true' as the default. Please configure this value if this is wrong.
Config: Warning: Key WriteAllBits is not set. Using 'true' as the default. Please configure this value if this is wrong.
Config: Warning: Key Ereset is not set. Using '0.054331' as the default. Please configure this value if this is wrong.
Config: Warning: Key Eset is not set. Using '0.101581' as the default. Please configure this value if this is wrong.
Config: Warning: Key nWP00 is not set. Using '0' as the default. Please configure this value if this is wrong.
Config: Warning: Key nWP01 is not set. Using '7' as the default. Please configure this value if this is wrong.
Config: Warning: Key nWP10 is not set. Using '5' as the default. Please configure this value if this is wrong.
Config: Warning: Key nWP11 is not set. Using '1' as the default. Please configure this value if this is wrong.
Config: Warning: Key WPMaxVariance is not set. Using '2' as the default. Please configure this value if this is wrong.
Config: Warning: Key DeadlockTimer is not set. Using '10000000' as the default. Please configure this value if this is wrong.
Config: Warning: Key EnableDebug is not set. Using 'false' as the default. Please configure this value if this is wrong.
Config: Warning: Key WritePausing is not set. Using 'false' as the default. Please configure this value if this is wrong.
Config: Warning: Key PauseThreshold is not set. Using '0.4' as the default. Please configure this value if this is wrong.
Config: Warning: Key MaxCancellations is not set. Using '4' as the default. Please configure this value if this is wrong.
Warning: Sim Interface should be allocated before configuration!
NVMain: the address mapping order is 
	Sub-Array 6
	Row 5
	Column 2
	Bank 3
	Rank 4
	Channel 1
Reading channel config file: nvmain/hdrc/NVM_channel.config
Created a First Ready First Come First Serve memory controller!
Config: Warning: Key EIDD0 is not set. Using '85' as the default. Please configure this value if this is wrong.
Config: Warning: Key EIDD1 is not set. Using '54' as the default. Please configure this value if this is wrong.
Config: Warning: Key EIDD2P0 is not set. Using '30' as the default. Please configure this value if this is wrong.
Config: Warning: Key EIDD2P1 is not set. Using '30' as the default. Please configure this value if this is wrong.
Config: Warning: Key EIDD2N is not set. Using '37' as the default. Please configure this value if this is wrong.
Config: Warning: Key EIDD3P is not set. Using '35' as the default. Please configure this value if this is wrong.
Config: Warning: Key EIDD3N is not set. Using '40' as the default. Please configure this value if this is wrong.
Config: Warning: Key EIDD4R is not set. Using '160' as the default. Please configure this value if this is wrong.
Config: Warning: Key EIDD4W is not set. Using '165' as the default. Please configure this value if this is wrong.
Config: Warning: Key EIDD5B is not set. Using '200' as the default. Please configure this value if this is wrong.
Config: Warning: Key EIDD6 is not set. Using '12' as the default. Please configure this value if this is wrong.
Config: Warning: Key Eactstdby is not set. Using '0.09009' as the default. Please configure this value if this is wrong.
Config: Warning: Key Eprestdby is not set. Using '0.083333' as the default. Please configure this value if this is wrong.
Config: Warning: Key Rtt_nom is not set. Using '30' as the default. Please configure this value if this is wrong.
Config: Warning: Key Rtt_wr is not set. Using '60' as the default. Please configure this value if this is wrong.
Config: Warning: Key Rtt_cont is not set. Using '75' as the default. Please configure this value if this is wrong.
Config: Warning: Key VDDQ is not set. Using '1.5' as the default. Please configure this value if this is wrong.
Config: Warning: Key VSSQ is not set. Using '0' as the default. Please configure this value if this is wrong.
Config: Warning: Key RanksPerDIMM is not set. Using '1' as the default. Please configure this value if this is wrong.
Config: Warning: Key DataEncoder is not set. Using 'default' as the default. Please configure this value if this is wrong.
Config: Warning: Key UseLowPower is not set. Using 'true' as the default. Please configure this value if this is wrong.
Config: Warning: Key PowerDownMode is not set. Using 'FASTEXIT' as the default. Please configure this value if this is wrong.
Config: Warning: Key PrintAllDevices is not set. Using 'false' as the default. Please configure this value if this is wrong.
Config: Warning: Key PrintConfig is not set. Using 'false' as the default. Please configure this value if this is wrong.
Config: Warning: Key StaggerRefresh is not set. Using 'false' as the default. Please configure this value if this is wrong.
Config: Warning: Key UsePrecharge is not set. Using 'true' as the default. Please configure this value if this is wrong.
Config: Warning: Key OffChipLatency is not set. Using '10' as the default. Please configure this value if this is wrong.
Config: Warning: Key RBSize is not set. Using '32' as the default. Please configure this value if this is wrong.
Config: Warning: Key MemoryPrefetcher is not set. Using 'none' as the default. Please configure this value if this is wrong.
Config: Warning: Key PrefetchBufferSize is not set. Using '32' as the default. Please configure this value if this is wrong.
Config: Warning: Key MLCLevels is not set. Using '1' as the default. Please configure this value if this is wrong.
Config: Warning: Key WPVariance is not set. Using '1' as the default. Please configure this value if this is wrong.
Config: Warning: Key UniformWrites is not set. Using 'true' as the default. Please configure this value if this is wrong.
Config: Warning: Key WriteAllBits is not set. Using 'true' as the default. Please configure this value if this is wrong.
Config: Warning: Key Ereset is not set. Using '0.054331' as the default. Please configure this value if this is wrong.
Config: Warning: Key Eset is not set. Using '0.101581' as the default. Please configure this value if this is wrong.
Config: Warning: Key nWP00 is not set. Using '0' as the default. Please configure this value if this is wrong.
Config: Warning: Key nWP01 is not set. Using '7' as the default. Please configure this value if this is wrong.
Config: Warning: Key nWP10 is not set. Using '5' as the default. Please configure this value if this is wrong.
Config: Warning: Key nWP11 is not set. Using '1' as the default. Please configure this value if this is wrong.
Config: Warning: Key WPMaxVariance is not set. Using '2' as the default. Please configure this value if this is wrong.
Config: Warning: Key DeadlockTimer is not set. Using '10000000' as the default. Please configure this value if this is wrong.
Config: Warning: Key EnableDebug is not set. Using 'false' as the default. Please configure this value if this is wrong.
Config: Warning: Key WritePausing is not set. Using 'false' as the default. Please configure this value if this is wrong.
Config: Warning: Key PauseThreshold is not set. Using '0.4' as the default. Please configure this value if this is wrong.
Config: Warning: Key MaxCancellations is not set. Using '4' as the default. Please configure this value if this is wrong.
Config: Warning: Key Decoder is not set. Using '' as the default. Please configure this value if this is wrong.
Config: Warning: Key RankType is not set. Using '' as the default. Please configure this value if this is wrong.
Creating 8 banks in all 8 devices.
Config: Warning: Key BankType is not set. Using '' as the default. Please configure this value if this is wrong.
NVMain: the address mapping order is 
	Sub-Array 6
	Row 5
	Column 2
	Bank 3
	Rank 4
	Channel 1
MainMemory.channel0.FRFCFS capacity is 2048 MB.
Creating 8 command queues.
Reading channel config file: nvmain/hdrc/NVM_channel.config
Created a First Ready First Come First Serve memory controller!
Config: Warning: Key EIDD0 is not set. Using '85' as the default. Please configure this value if this is wrong.
Config: Warning: Key EIDD1 is not set. Using '54' as the default. Please configure this value if this is wrong.
Config: Warning: Key EIDD2P0 is not set. Using '30' as the default. Please configure this value if this is wrong.
Config: Warning: Key EIDD2P1 is not set. Using '30' as the default. Please configure this value if this is wrong.
Config: Warning: Key EIDD2N is not set. Using '37' as the default. Please configure this value if this is wrong.
Config: Warning: Key EIDD3P is not set. Using '35' as the default. Please configure this value if this is wrong.
Config: Warning: Key EIDD3N is not set. Using '40' as the default. Please configure this value if this is wrong.
Config: Warning: Key EIDD4R is not set. Using '160' as the default. Please configure this value if this is wrong.
Config: Warning: Key EIDD4W is not set. Using '165' as the default. Please configure this value if this is wrong.
Config: Warning: Key EIDD5B is not set. Using '200' as the default. Please configure this value if this is wrong.
Config: Warning: Key EIDD6 is not set. Using '12' as the default. Please configure this value if this is wrong.
Config: Warning: Key Eactstdby is not set. Using '0.09009' as the default. Please configure this value if this is wrong.
Config: Warning: Key Eprestdby is not set. Using '0.083333' as the default. Please configure this value if this is wrong.
Config: Warning: Key Rtt_nom is not set. Using '30' as the default. Please configure this value if this is wrong.
Config: Warning: Key Rtt_wr is not set. Using '60' as the default. Please configure this value if this is wrong.
Config: Warning: Key Rtt_cont is not set. Using '75' as the default. Please configure this value if this is wrong.
Config: Warning: Key VDDQ is not set. Using '1.5' as the default. Please configure this value if this is wrong.
Config: Warning: Key VSSQ is not set. Using '0' as the default. Please configure this value if this is wrong.
Config: Warning: Key RanksPerDIMM is not set. Using '1' as the default. Please configure this value if this is wrong.
Config: Warning: Key DataEncoder is not set. Using 'default' as the default. Please configure this value if this is wrong.
Config: Warning: Key UseLowPower is not set. Using 'true' as the default. Please configure this value if this is wrong.
Config: Warning: Key PowerDownMode is not set. Using 'FASTEXIT' as the default. Please configure this value if this is wrong.
Config: Warning: Key PrintAllDevices is not set. Using 'false' as the default. Please configure this value if this is wrong.
Config: Warning: Key PrintConfig is not set. Using 'false' as the default. Please configure this value if this is wrong.
Config: Warning: Key StaggerRefresh is not set. Using 'false' as the default. Please configure this value if this is wrong.
Config: Warning: Key UsePrecharge is not set. Using 'true' as the default. Please configure this value if this is wrong.
Config: Warning: Key OffChipLatency is not set. Using '10' as the default. Please configure this value if this is wrong.
Config: Warning: Key RBSize is not set. Using '32' as the default. Please configure this value if this is wrong.
Config: Warning: Key MemoryPrefetcher is not set. Using 'none' as the default. Please configure this value if this is wrong.
Config: Warning: Key PrefetchBufferSize is not set. Using '32' as the default. Please configure this value if this is wrong.
Config: Warning: Key MLCLevels is not set. Using '1' as the default. Please configure this value if this is wrong.
Config: Warning: Key WPVariance is not set. Using '1' as the default. Please configure this value if this is wrong.
Config: Warning: Key UniformWrites is not set. Using 'true' as the default. Please configure this value if this is wrong.
Config: Warning: Key WriteAllBits is not set. Using 'true' as the default. Please configure this value if this is wrong.
Config: Warning: Key Ereset is not set. Using '0.054331' as the default. Please configure this value if this is wrong.
Config: Warning: Key Eset is not set. Using '0.101581' as the default. Please configure this value if this is wrong.
Config: Warning: Key nWP00 is not set. Using '0' as the default. Please configure this value if this is wrong.
Config: Warning: Key nWP01 is not set. Using '7' as the default. Please configure this value if this is wrong.
Config: Warning: Key nWP10 is not set. Using '5' as the default. Please configure this value if this is wrong.
Config: Warning: Key nWP11 is not set. Using '1' as the default. Please configure this value if this is wrong.
Config: Warning: Key WPMaxVariance is not set. Using '2' as the default. Please configure this value if this is wrong.
Config: Warning: Key DeadlockTimer is not set. Using '10000000' as the default. Please configure this value if this is wrong.
Config: Warning: Key EnableDebug is not set. Using 'false' as the default. Please configure this value if this is wrong.
Config: Warning: Key WritePausing is not set. Using 'false' as the default. Please configure this value if this is wrong.
Config: Warning: Key PauseThreshold is not set. Using '0.4' as the default. Please configure this value if this is wrong.
Config: Warning: Key MaxCancellations is not set. Using '4' as the default. Please configure this value if this is wrong.
Config: Warning: Key Decoder is not set. Using '' as the default. Please configure this value if this is wrong.
[...]
i0.hierarch_dram.L0_cache.FRFCFS.channel0.rank0.bank4.subarray0.measuredWriteTimes 485
i0.hierarch_dram.L0_cache.FRFCFS.channel0.rank0.bank4.subarray0.mlcTimingHisto {}
i0.hierarch_dram.L0_cache.FRFCFS.channel0.rank0.bank4.subarray0.cancelCountHisto {0: 23286}
i0.hierarch_dram.L0_cache.FRFCFS.channel0.rank0.bank4.subarray0.wpPauseHisto {}
i0.hierarch_dram.L0_cache.FRFCFS.channel0.rank0.bank4.subarray0.wpCancelHisto {}
i0.hierarch_dram.L0_cache.FRFCFS.channel0.rank0.bank4.bankEnergy 1.19813e+08mA*t
i0.hierarch_dram.L0_cache.FRFCFS.channel0.rank0.bank4.activeEnergy 70335.8mA*t
i0.hierarch_dram.L0_cache.FRFCFS.channel0.rank0.bank4.burstEnergy 3.37408e+06mA*t
i0.hierarch_dram.L0_cache.FRFCFS.channel0.rank0.bank4.refreshEnergy 1.16369e+08mA*t
i0.hierarch_dram.L0_cache.FRFCFS.channel0.rank0.bank4.bankPower 0.000158144W
i0.hierarch_dram.L0_cache.FRFCFS.channel0.rank0.bank4.activePower 9.28377e-08W
i0.hierarch_dram.L0_cache.FRFCFS.channel0.rank0.bank4.burstPower 4.45351e-06W
i0.hierarch_dram.L0_cache.FRFCFS.channel0.rank0.bank4.refreshPower 0.000153597W
i0.hierarch_dram.L0_cache.FRFCFS.channel0.rank0.bank4.bandwidth 16.2912MB/s
i0.hierarch_dram.L0_cache.FRFCFS.channel0.rank0.bank4.dataCycles 217176
i0.hierarch_dram.L0_cache.FRFCFS.channel0.rank0.bank4.powerCycles 1136431009
i0.hierarch_dram.L0_cache.FRFCFS.channel0.rank0.bank4.utilization 0.000191104
i0.hierarch_dram.L0_cache.FRFCFS.channel0.rank0.bank4.reads 3860
i0.hierarch_dram.L0_cache.FRFCFS.channel0.rank0.bank4.writes 23287
i0.hierarch_dram.L0_cache.FRFCFS.channel0.rank0.bank4.activates 491
i0.hierarch_dram.L0_cache.FRFCFS.channel0.rank0.bank4.precharges 491
i0.hierarch_dram.L0_cache.FRFCFS.channel0.rank0.bank4.refreshes 90913
i0.hierarch_dram.L0_cache.FRFCFS.channel0.rank0.bank4.activeCycles 4094416
i0.hierarch_dram.L0_cache.FRFCFS.channel0.rank0.bank4.standbyCycles 1132336593
i0.hierarch_dram.L0_cache.FRFCFS.channel0.rank0.bank4.fastExitActiveCycles 0
i0.hierarch_dram.L0_cache.FRFCFS.channel0.rank0.bank4.fastExitPrechargeCycles 0
i0.hierarch_dram.L0_cache.FRFCFS.channel0.rank0.bank4.slowExitPrechargeCycles 0
i0.hierarch_dram.L0_cache.FRFCFS.channel0.rank0.bank4.actWaits 0
i0.hierarch_dram.L0_cache.FRFCFS.channel0.rank0.bank4.actWaitTotal 0
i0.hierarch_dram.L0_cache.FRFCFS.channel0.rank0.bank4.actWaitAverage -nan
i0.hierarch_dram.L0_cache.FRFCFS.channel0.rank0.bank4.averageEndurance 0
i0.hierarch_dram.L0_cache.FRFCFS.channel0.rank0.bank4.worstCaseEndurance 18446744073709551615
i0.hierarch_dram.L0_cache.FRFCFS.channel0.rank0.bank5.subarray0.subArrayEnergy 1.16372e+08mA*t
i0.hierarch_dram.L0_cache.FRFCFS.channel0.rank0.bank5.subarray0.activeEnergy 143.25mA*t
i0.hierarch_dram.L0_cache.FRFCFS.channel0.rank0.bank5.subarray0.burstEnergy 3375mA*t
i0.hierarch_dram.L0_cache.FRFCFS.channel0.rank0.bank5.subarray0.refreshEnergy 1.16369e+08mA*t
i0.hierarch_dram.L0_cache.FRFCFS.channel0.rank0.bank5.subarray0.cancelledWrites 0
i0.hierarch_dram.L0_cache.FRFCFS.channel0.rank0.bank5.subarray0.cancelledWriteTime 0
i0.hierarch_dram.L0_cache.FRFCFS.channel0.rank0.bank5.subarray0.pausedWrites 0
i0.hierarch_dram.L0_cache.FRFCFS.channel0.rank0.bank5.subarray0.averagePausesPerRequest 0
i0.hierarch_dram.L0_cache.FRFCFS.channel0.rank0.bank5.subarray0.measuredPauses 27
i0.hierarch_dram.L0_cache.FRFCFS.channel0.rank0.bank5.subarray0.averagePausedRequestProgress 0
i0.hierarch_dram.L0_cache.FRFCFS.channel0.rank0.bank5.subarray0.measuredProgresses 0
i0.hierarch_dram.L0_cache.FRFCFS.channel0.rank0.bank5.subarray0.reads 0
i0.hierarch_dram.L0_cache.FRFCFS.channel0.rank0.bank5.subarray0.writes 27
i0.hierarch_dram.L0_cache.FRFCFS.channel0.rank0.bank5.subarray0.activates 1
i0.hierarch_dram.L0_cache.FRFCFS.channel0.rank0.bank5.subarray0.precharges 1
i0.hierarch_dram.L0_cache.FRFCFS.channel0.rank0.bank5.subarray0.refreshes 90913
i0.hierarch_dram.L0_cache.FRFCFS.channel0.rank0.bank5.subarray0.worstCaseEndurance 18446744073709551615
i0.hierarch_dram.L0_cache.FRFCFS.channel0.rank0.bank5.subarray0.averageEndurance 0
i0.hierarch_dram.L0_cache.FRFCFS.channel0.rank0.bank5.subarray0.actWaits 0
i0.hierarch_dram.L0_cache.FRFCFS.channel0.rank0.bank5.subarray0.actWaitTotal 0
i0.hierarch_dram.L0_cache.FRFCFS.channel0.rank0.bank5.subarray0.actWaitAverage -nan
i0.hierarch_dram.L0_cache.FRFCFS.channel0.rank0.bank5.subarray0.worstCaseWrite 0
i0.hierarch_dram.L0_cache.FRFCFS.channel0.rank0.bank5.subarray0.num00Writes 0
i0.hierarch_dram.L0_cache.FRFCFS.channel0.rank0.bank5.subarray0.num01Writes 0
i0.hierarch_dram.L0_cache.FRFCFS.channel0.rank0.bank5.subarray0.num10Writes 0
i0.hierarch_dram.L0_cache.FRFCFS.channel0.rank0.bank5.subarray0.num11Writes 0
i0.hierarch_dram.L0_cache.FRFCFS.channel0.rank0.bank5.subarray0.averageWriteTime 7
i0.hierarch_dram.L0_cache.FRFCFS.channel0.rank0.bank5.subarray0.measuredWriteTimes 1
i0.hierarch_dram.L0_cache.FRFCFS.channel0.rank0.bank5.subarray0.mlcTimingHisto {}
i0.hierarch_dram.L0_cache.FRFCFS.channel0.rank0.bank5.subarray0.cancelCountHisto {0: 26}
i0.hierarch_dram.L0_cache.FRFCFS.channel0.rank0.bank5.subarray0.wpPauseHisto {}
i0.hierarch_dram.L0_cache.FRFCFS.channel0.rank0.bank5.subarray0.wpCancelHisto {}
i0.hierarch_dram.L0_cache.FRFCFS.channel0.rank0.bank5.bankEnergy 1.16372e+08mA*t
i0.hierarch_dram.L0_cache.FRFCFS.channel0.rank0.bank5.activeEnergy 143.25mA*t
i0.hierarch_dram.L0_cache.FRFCFS.channel0.rank0.bank5.burstEnergy 3375mA*t
i0.hierarch_dram.L0_cache.FRFCFS.channel0.rank0.bank5.refreshEnergy 1.16369e+08mA*t
i0.hierarch_dram.L0_cache.FRFCFS.channel0.rank0.bank5.bankPower 0.000153602W
i0.hierarch_dram.L0_cache.FRFCFS.channel0.rank0.bank5.activePower 1.89079e-10W
i0.hierarch_dram.L0_cache.FRFCFS.channel0.rank0.bank5.burstPower 4.45474e-09W
i0.hierarch_dram.L0_cache.FRFCFS.channel0.rank0.bank5.refreshPower 0.000153597W
i0.hierarch_dram.L0_cache.FRFCFS.channel0.rank0.bank5.bandwidth 0.016203MB/s
i0.hierarch_dram.L0_cache.FRFCFS.channel0.rank0.bank5.dataCycles 216
i0.hierarch_dram.L0_cache.FRFCFS.channel0.rank0.bank5.powerCycles 1136431009
i0.hierarch_dram.L0_cache.FRFCFS.channel0.rank0.bank5.utilization 1.90069e-07
i0.hierarch_dram.L0_cache.FRFCFS.channel0.rank0.bank5.reads 0
i0.hierarch_dram.L0_cache.FRFCFS.channel0.rank0.bank5.writes 27
i0.hierarch_dram.L0_cache.FRFCFS.channel0.rank0.bank5.activates 1
i0.hierarch_dram.L0_cache.FRFCFS.channel0.rank0.bank5.precharges 1
i0.hierarch_dram.L0_cache.FRFCFS.channel0.rank0.bank5.refreshes 90913
i0.hierarch_dram.L0_cache.FRFCFS.channel0.rank0.bank5.activeCycles 15235
i0.hierarch_dram.L0_cache.FRFCFS.channel0.rank0.bank5.standbyCycles 1136415774
i0.hierarch_dram.L0_cache.FRFCFS.channel0.rank0.bank5.fastExitActiveCycles 0
i0.hierarch_dram.L0_cache.FRFCFS.channel0.rank0.bank5.fastExitPrechargeCycles 0
i0.hierarch_dram.L0_cache.FRFCFS.channel0.rank0.bank5.slowExitPrechargeCycles 0
i0.hierarch_dram.L0_cache.FRFCFS.channel0.rank0.bank5.actWaits 0
i0.hierarch_dram.L0_cache.FRFCFS.channel0.rank0.bank5.actWaitTotal 0
i0.hierarch_dram.L0_cache.FRFCFS.channel0.rank0.bank5.actWaitAverage -nan
i0.hierarch_dram.L0_cache.FRFCFS.channel0.rank0.bank5.averageEndurance 0
i0.hierarch_dram.L0_cache.FRFCFS.channel0.rank0.bank5.worstCaseEndurance 18446744073709551615
i0.hierarch_dram.L0_cache.FRFCFS.channel0.rank0.bank6.subarray0.subArrayEnergy 1.16369e+08mA*t
i0.hierarch_dram.L0_cache.FRFCFS.channel0.rank0.bank6.subarray0.activeEnergy 0mA*t
i0.hierarch_dram.L0_cache.FRFCFS.channel0.rank0.bank6.subarray0.burstEnergy 0mA*t
i0.hierarch_dram.L0_cache.FRFCFS.channel0.rank0.bank6.subarray0.refreshEnergy 1.16369e+08mA*t
i0.hierarch_dram.L0_cache.FRFCFS.channel0.rank0.bank6.subarray0.cancelledWrites 0
i0.hierarch_dram.L0_cache.FRFCFS.channel0.rank0.bank6.subarray0.cancelledWriteTime 0
i0.hierarch_dram.L0_cache.FRFCFS.channel0.rank0.bank6.subarray0.pausedWrites 0
i0.hierarch_dram.L0_cache.FRFCFS.channel0.rank0.bank6.subarray0.averagePausesPerRequest 0
i0.hierarch_dram.L0_cache.FRFCFS.channel0.rank0.bank6.subarray0.measuredPauses 0
i0.hierarch_dram.L0_cache.FRFCFS.channel0.rank0.bank6.subarray0.averagePausedRequestProgress 0
i0.hierarch_dram.L0_cache.FRFCFS.channel0.rank0.bank6.subarray0.measuredProgresses 0
i0.hierarch_dram.L0_cache.FRFCFS.channel0.rank0.bank6.subarray0.reads 0
i0.hierarch_dram.L0_cache.FRFCFS.channel0.rank0.bank6.subarray0.writes 0
i0.hierarch_dram.L0_cache.FRFCFS.channel0.rank0.bank6.subarray0.activates 0
i0.hierarch_dram.L0_cache.FRFCFS.channel0.rank0.bank6.subarray0.precharges 0
i0.hierarch_dram.L0_cache.FRFCFS.channel0.rank0.bank6.subarray0.refreshes 90913
i0.hierarch_dram.L0_cache.FRFCFS.channel0.rank0.bank6.subarray0.worstCaseEndurance 18446744073709551615
i0.hierarch_dram.L0_cache.FRFCFS.channel0.rank0.bank6.subarray0.averageEndurance 0
i0.hierarch_dram.L0_cache.FRFCFS.channel0.rank0.bank6.subarray0.actWaits 0
i0.hierarch_dram.L0_cache.FRFCFS.channel0.rank0.bank6.subarray0.actWaitTotal 0
i0.hierarch_dram.L0_cache.FRFCFS.channel0.rank0.bank6.subarray0.actWaitAverage -nan
i0.hierarch_dram.L0_cache.FRFCFS.channel0.rank0.bank6.subarray0.worstCaseWrite 0
i0.hierarch_dram.L0_cache.FRFCFS.channel0.rank0.bank6.subarray0.num00Writes 0
i0.hierarch_dram.L0_cache.FRFCFS.channel0.rank0.bank6.subarray0.num01Writes 0
i0.hierarch_dram.L0_cache.FRFCFS.channel0.rank0.bank6.subarray0.num10Writes 0
i0.hierarch_dram.L0_cache.FRFCFS.channel0.rank0.bank6.subarray0.num11Writes 0
i0.hierarch_dram.L0_cache.FRFCFS.channel0.rank0.bank6.subarray0.averageWriteTime 0
i0.hierarch_dram.L0_cache.FRFCFS.channel0.rank0.bank6.subarray0.measuredWriteTimes 0
i0.hierarch_dram.L0_cache.FRFCFS.channel0.rank0.bank6.subarray0.mlcTimingHisto {}
i0.hierarch_dram.L0_cache.FRFCFS.channel0.rank0.bank6.subarray0.cancelCountHisto {}
i0.hierarch_dram.L0_cache.FRFCFS.channel0.rank0.bank6.subarray0.wpPauseHisto {}
i0.hierarch_dram.L0_cache.FRFCFS.channel0.rank0.bank6.subarray0.wpCancelHisto {}
i0.hierarch_dram.L0_cache.FRFCFS.channel0.rank0.bank6.bankEnergy 1.16369e+08mA*t
i0.hierarch_dram.L0_cache.FRFCFS.channel0.rank0.bank6.activeEnergy 0mA*t
i0.hierarch_dram.L0_cache.FRFCFS.channel0.rank0.bank6.burstEnergy 0mA*t
i0.hierarch_dram.L0_cache.FRFCFS.channel0.rank0.bank6.refreshEnergy 1.16369e+08mA*t
i0.hierarch_dram.L0_cache.FRFCFS.channel0.rank0.bank6.bankPower 0.000153597W
i0.hierarch_dram.L0_cache.FRFCFS.channel0.rank0.bank6.activePower 0W
i0.hierarch_dram.L0_cache.FRFCFS.channel0.rank0.bank6.burstPower 0W
i0.hierarch_dram.L0_cache.FRFCFS.channel0.rank0.bank6.refreshPower 0.000153597W
i0.hierarch_dram.L0_cache.FRFCFS.channel0.rank0.bank6.bandwidth 0MB/s
i0.hierarch_dram.L0_cache.FRFCFS.channel0.rank0.bank6.dataCycles 0
i0.hierarch_dram.L0_cache.FRFCFS.channel0.rank0.bank6.powerCycles 1136431009
i0.hierarch_dram.L0_cache.FRFCFS.channel0.rank0.bank6.utilization 0
i0.hierarch_dram.L0_cache.FRFCFS.channel0.rank0.bank6.reads 0
i0.hierarch_dram.L0_cache.FRFCFS.channel0.rank0.bank6.writes 0
i0.hierarch_dram.L0_cache.FRFCFS.channel0.rank0.bank6.activates 0
i0.hierarch_dram.L0_cache.FRFCFS.channel0.rank0.bank6.precharges 0
i0.hierarch_dram.L0_cache.FRFCFS.channel0.rank0.bank6.refreshes 90913
i0.hierarch_dram.L0_cache.FRFCFS.channel0.rank0.bank6.activeCycles 0
i0.hierarch_dram.L0_cache.FRFCFS.channel0.rank0.bank6.standbyCycles 1136431009
i0.hierarch_dram.L0_cache.FRFCFS.channel0.rank0.bank6.fastExitActiveCycles 0
i0.hierarch_dram.L0_cache.FRFCFS.channel0.rank0.bank6.fastExitPrechargeCycles 0
i0.hierarch_dram.L0_cache.FRFCFS.channel0.rank0.bank6.slowExitPrechargeCycles 0
i0.hierarch_dram.L0_cache.FRFCFS.channel0.rank0.bank6.actWaits 0
i0.hierarch_dram.L0_cache.FRFCFS.channel0.rank0.bank6.actWaitTotal 0
i0.hierarch_dram.L0_cache.FRFCFS.channel0.rank0.bank6.actWaitAverage -nan
i0.hierarch_dram.L0_cache.FRFCFS.channel0.rank0.bank6.averageEndurance 0
i0.hierarch_dram.L0_cache.FRFCFS.channel0.rank0.bank6.worstCaseEndurance 18446744073709551615
i0.hierarch_dram.L0_cache.FRFCFS.channel0.rank0.bank7.subarray0.subArrayEnergy 1.16369e+08mA*t
i0.hierarch_dram.L0_cache.FRFCFS.channel0.rank0.bank7.subarray0.activeEnergy 0mA*t
i0.hierarch_dram.L0_cache.FRFCFS.channel0.rank0.bank7.subarray0.burstEnergy 0mA*t
i0.hierarch_dram.L0_cache.FRFCFS.channel0.rank0.bank7.subarray0.refreshEnergy 1.16369e+08mA*t
i0.hierarch_dram.L0_cache.FRFCFS.channel0.rank0.bank7.subarray0.cancelledWrites 0
i0.hierarch_dram.L0_cache.FRFCFS.channel0.rank0.bank7.subarray0.cancelledWriteTime 0
i0.hierarch_dram.L0_cache.FRFCFS.channel0.rank0.bank7.subarray0.pausedWrites 0
i0.hierarch_dram.L0_cache.FRFCFS.channel0.rank0.bank7.subarray0.averagePausesPerRequest 0
i0.hierarch_dram.L0_cache.FRFCFS.channel0.rank0.bank7.subarray0.measuredPauses 0
i0.hierarch_dram.L0_cache.FRFCFS.channel0.rank0.bank7.subarray0.averagePausedRequestProgress 0
i0.hierarch_dram.L0_cache.FRFCFS.channel0.rank0.bank7.subarray0.measuredProgresses 0
i0.hierarch_dram.L0_cache.FRFCFS.channel0.rank0.bank7.subarray0.reads 0
i0.hierarch_dram.L0_cache.FRFCFS.channel0.rank0.bank7.subarray0.writes 0
i0.hierarch_dram.L0_cache.FRFCFS.channel0.rank0.bank7.subarray0.activates 0
i0.hierarch_dram.L0_cache.FRFCFS.channel0.rank0.bank7.subarray0.precharges 0
i0.hierarch_dram.L0_cache.FRFCFS.channel0.rank0.bank7.subarray0.refreshes 90913
i0.hierarch_dram.L0_cache.FRFCFS.channel0.rank0.bank7.subarray0.worstCaseEndurance 18446744073709551615
i0.hierarch_dram.L0_cache.FRFCFS.channel0.rank0.bank7.subarray0.averageEndurance 0
i0.hierarch_dram.L0_cache.FRFCFS.channel0.rank0.bank7.subarray0.actWaits 0
i0.hierarch_dram.L0_cache.FRFCFS.channel0.rank0.bank7.subarray0.actWaitTotal 0
i0.hierarch_dram.L0_cache.FRFCFS.channel0.rank0.bank7.subarray0.actWaitAverage -nan
i0.hierarch_dram.L0_cache.FRFCFS.channel0.rank0.bank7.subarray0.worstCaseWrite 0
i0.hierarch_dram.L0_cache.FRFCFS.channel0.rank0.bank7.subarray0.num00Writes 0
i0.hierarch_dram.L0_cache.FRFCFS.channel0.rank0.bank7.subarray0.num01Writes 0
i0.hierarch_dram.L0_cache.FRFCFS.channel0.rank0.bank7.subarray0.num10Writes 0
i0.hierarch_dram.L0_cache.FRFCFS.channel0.rank0.bank7.subarray0.num11Writes 0
i0.hierarch_dram.L0_cache.FRFCFS.channel0.rank0.bank7.subarray0.averageWriteTime 0
i0.hierarch_dram.L0_cache.FRFCFS.channel0.rank0.bank7.subarray0.measuredWriteTimes 0
i0.hierarch_dram.L0_cache.FRFCFS.channel0.rank0.bank7.subarray0.mlcTimingHisto {}
i0.hierarch_dram.L0_cache.FRFCFS.channel0.rank0.bank7.subarray0.cancelCountHisto {}
i0.hierarch_dram.L0_cache.FRFCFS.channel0.rank0.bank7.subarray0.wpPauseHisto {}
i0.hierarch_dram.L0_cache.FRFCFS.channel0.rank0.bank7.subarray0.wpCancelHisto {}
i0.hierarch_dram.L0_cache.FRFCFS.channel0.rank0.bank7.bankEnergy 1.16369e+08mA*t
i0.hierarch_dram.L0_cache.FRFCFS.channel0.rank0.bank7.activeEnergy 0mA*t
i0.hierarch_dram.L0_cache.FRFCFS.channel0.rank0.bank7.burstEnergy 0mA*t
i0.hierarch_dram.L0_cache.FRFCFS.channel0.rank0.bank7.refreshEnergy 1.16369e+08mA*t
i0.hierarch_dram.L0_cache.FRFCFS.channel0.rank0.bank7.bankPower 0.000153597W
i0.hierarch_dram.L0_cache.FRFCFS.channel0.rank0.bank7.activePower 0W
i0.hierarch_dram.L0_cache.FRFCFS.channel0.rank0.bank7.burstPower 0W
i0.hierarch_dram.L0_cache.FRFCFS.channel0.rank0.bank7.refreshPower 0.000153597W
i0.hierarch_dram.L0_cache.FRFCFS.channel0.rank0.bank7.bandwidth 0MB/s
i0.hierarch_dram.L0_cache.FRFCFS.channel0.rank0.bank7.dataCycles 0
i0.hierarch_dram.L0_cache.FRFCFS.channel0.rank0.bank7.powerCycles 1136431009
i0.hierarch_dram.L0_cache.FRFCFS.channel0.rank0.bank7.utilization 0
i0.hierarch_dram.L0_cache.FRFCFS.channel0.rank0.bank7.reads 0
i0.hierarch_dram.L0_cache.FRFCFS.channel0.rank0.bank7.writes 0
i0.hierarch_dram.L0_cache.FRFCFS.channel0.rank0.bank7.activates 0
i0.hierarch_dram.L0_cache.FRFCFS.channel0.rank0.bank7.precharges 0
i0.hierarch_dram.L0_cache.FRFCFS.channel0.rank0.bank7.refreshes 90913
i0.hierarch_dram.L0_cache.FRFCFS.channel0.rank0.bank7.activeCycles 0
i0.hierarch_dram.L0_cache.FRFCFS.channel0.rank0.bank7.standbyCycles 1136431009
i0.hierarch_dram.L0_cache.FRFCFS.channel0.rank0.bank7.fastExitActiveCycles 0
i0.hierarch_dram.L0_cache.FRFCFS.channel0.rank0.bank7.fastExitPrechargeCycles 0
i0.hierarch_dram.L0_cache.FRFCFS.channel0.rank0.bank7.slowExitPrechargeCycles 0
i0.hierarch_dram.L0_cache.FRFCFS.channel0.rank0.bank7.actWaits 0
i0.hierarch_dram.L0_cache.FRFCFS.channel0.rank0.bank7.actWaitTotal 0
i0.hierarch_dram.L0_cache.FRFCFS.channel0.rank0.bank7.actWaitAverage -nan
i0.hierarch_dram.L0_cache.FRFCFS.channel0.rank0.bank7.averageEndurance 0
i0.hierarch_dram.L0_cache.FRFCFS.channel0.rank0.bank7.worstCaseEndurance 18446744073709551615
i0.hierarch_dram.L0_cache.FRFCFS.channel0.rank0.totalEnergy 3.80347e+11mA*t
i0.hierarch_dram.L0_cache.FRFCFS.channel0.rank0.backgroundEnergy 3.60645e+11mA*t
i0.hierarch_dram.L0_cache.FRFCFS.channel0.rank0.activateEnergy 9.97238e+07mA*t
i0.hierarch_dram.L0_cache.FRFCFS.channel0.rank0.burstEnergy 9.96611e+09mA*t
i0.hierarch_dram.L0_cache.FRFCFS.channel0.rank0.refreshEnergy 7.44763e+09mA*t
i0.hierarch_dram.L0_cache.FRFCFS.channel0.rank0.totalPower 0.0826192W
i0.hierarch_dram.L0_cache.FRFCFS.channel0.rank0.backgroundPower 0.0595028W
i0.hierarch_dram.L0_cache.FRFCFS.channel0.rank0.activatePower 0.000131628W
i0.hierarch_dram.L0_cache.FRFCFS.channel0.rank0.burstPower 0.0131545W
i0.hierarch_dram.L0_cache.FRFCFS.channel0.rank0.refreshPower 0.00983029W
i0.hierarch_dram.L0_cache.FRFCFS.channel0.rank0.reads 169965
i0.hierarch_dram.L0_cache.FRFCFS.channel0.rank0.writes 9802944
i0.hierarch_dram.L0_cache.FRFCFS.channel0.rank0.activeCycles 1010872953
i0.hierarch_dram.L0_cache.FRFCFS.channel0.rank0.standbyCycles 125558056
i0.hierarch_dram.L0_cache.FRFCFS.channel0.rank0.fastExitActiveCycles 0
i0.hierarch_dram.L0_cache.FRFCFS.channel0.rank0.fastExitPrechargeCycles 0
i0.hierarch_dram.L0_cache.FRFCFS.channel0.rank0.slowExitCycles 0
i0.hierarch_dram.L0_cache.FRFCFS.channel0.rank0.actWaits 22787
i0.hierarch_dram.L0_cache.FRFCFS.channel0.rank0.actWaitTotal 34594
i0.hierarch_dram.L0_cache.FRFCFS.channel0.rank0.actWaitAverage 1.51815
i0.hierarch_dram.L0_cache.FRFCFS.channel0.rank0.rrdWaits 22788
i0.hierarch_dram.L0_cache.FRFCFS.channel0.rank0.rrdWaitTotal 34596
i0.hierarch_dram.L0_cache.FRFCFS.channel0.rank0.rrdWaitAverage 1.51817
i0.hierarch_dram.L0_cache.FRFCFS.channel0.rank0.fawWaits 1
i0.hierarch_dram.L0_cache.FRFCFS.channel0.rank0.fawWaitTotal 11
i0.hierarch_dram.L0_cache.FRFCFS.channel0.rank0.fawWaitAverage 11
i0.hierarch_dram.L0_cache.FRFCFS.mem_reads 169965
i0.hierarch_dram.L0_cache.FRFCFS.mem_writes 9802944
i0.hierarch_dram.L0_cache.FRFCFS.rb_hits 9885890
i0.hierarch_dram.L0_cache.FRFCFS.rb_miss 87019
i0.hierarch_dram.L0_cache.FRFCFS.starvation_precharges 1
i0.hierarch_dram.L0_cache.FRFCFS.averageLatency 22.8549
i0.hierarch_dram.L0_cache.FRFCFS.averageQueueLatency 1.11397
i0.hierarch_dram.L0_cache.FRFCFS.averageTotalLatency 23.9689
i0.hierarch_dram.L0_cache.FRFCFS.measuredLatencies 9972909
i0.hierarch_dram.L0_cache.FRFCFS.measuredQueueLatencies 9972909
i0.hierarch_dram.L0_cache.FRFCFS.measuredTotalLatencies 9972909
i0.hierarch_dram.L0_cache.FRFCFS.write_pauses 0
i0.hierarch_dram.L0_cache.FRFCFS.simulation_cycles 1136431009
i0.hierarch_dram.L0_cache.FRFCFS.wakeupCount 12995021
i0.hierarch_dram.totalReadRequests 6389390
i0.hierarch_dram.totalWriteRequests 3583519
i0.hierarch_dram.successfulPrefetches 0
i0.hierarch_dram.unsuccessfulPrefetches 0
i0.hierarch_dram.drc_hits 359510
i0.hierarch_dram.drc_miss 9613399
i0.hierarch_dram.drc_hits_0 359510
i0.hierarch_dram.drc_miss_0 9613399
i0.hierarch_dram.drc_hits_1 0
i0.hierarch_dram.drc_miss_1 0
i0.hierarch_dram.drc_hits_2 0
i0.hierarch_dram.drc_miss_2 0
i0.hierarch_dram.drc_hits_3 0
i0.hierarch_dram.drc_miss_3 0
i0.hierarch_dram.drc_hits_4 0
i0.hierarch_dram.drc_miss_4 0
i0.hierarch_dram.drc_hits_5 0
i0.hierarch_dram.drc_miss_5 0
i0.hierarch_dram.read_hits 169965
i0.hierarch_dram.read_miss 6219425
i0.hierarch_dram.write_hits 189545
i0.hierarch_dram.write_miss 3393974
i0.hierarch_dram.total_drc_size 134217728
i0.hierarch_dram.assoc 256
i0.hierarch_dram.lineSize 64
i0.hierarch_dram.set_num 8192
i0.hierarch_dram.drc_hit_rate 0.0360487
i0.hierarch_dram.drc_miss_rate 0.963951
i0.hierarch_dram.caching_cycles 1260974078
