gem5 Simulator System.  http://gem5.org
gem5 is copyrighted software; use the --copyright option for details.

gem5 compiled Apr  8 2020 18:16:55
gem5 started Apr 10 2020 11:30:45
gem5 executing on ar443-PC2, pid 851
command line: ./build/X86/gem5.opt --stats-file=401.bzip2-stats-2b.txt ./configs/example/se.py --warmup-insts 10000000 --cpu-type=TimingSimpleCPU --caches --l1d_size=32kB --l1i_size=32kB --l2cache --l2_size=2048kB --l2_assoc=16 --mem-size=16GB --mem-type=NVMainMemory --nvmain-config=nvmain/hdrc/hdrc.config -c /home/ar443/jia/gem5/cpu2006/benchspec/CPU2006/401.bzip2/exe/bzip2_base.amd64-m64-gcc41-nn -o '/home/ar443/jia/gem5/cpu2006/benchspec/CPU2006/401.bzip2/data/all/input/input.combined 200' --input cin --output /home/ar443/jia/gem5/cpu2006/benchspec/CPU2006/401.bzip2/data/ref/output/input.combined.out -I 100000000 -n 1

info: Standard input is not a terminal, disabling listeners.
Global frequency set at 1000000000000 ticks per second
NVMainControl: Reading NVMain config file: nvmain/hdrc/hdrc.config.
warn: Sockets disabled, not accepting gdb connections
NVMain: GlobalEventQueue: Added a memory subsystem running at 666MHz. My frequency is 3200MHz.
set config for HierDRAMCache
Config: Warning: Key EIDD0 is not set. Using '85' as the default. Please configure this value if this is wrong.
Config: Warning: Key EIDD1 is not set. Using '54' as the default. Please configure this value if this is wrong.
Config: Warning: Key EIDD2P0 is not set. Using '30' as the default. Please configure this value if this is wrong.
Config: Warning: Key EIDD2P1 is not set. Using '30' as the default. Please configure this value if this is wrong.
Config: Warning: Key EIDD2N is not set. Using '37' as the default. Please configure this value if this is wrong.
Config: Warning: Key EIDD3P is not set. Using '35' as the default. Please configure this value if this is wrong.
Config: Warning: Key EIDD3N is not set. Using '40' as the default. Please configure this value if this is wrong.
Config: Warning: Key EIDD4R is not set. Using '160' as the default. Please configure this value if this is wrong.
Config: Warning: Key EIDD4W is not set. Using '165' as the default. Please configure this value if this is wrong.
Config: Warning: Key EIDD5B is not set. Using '200' as the default. Please configure this value if this is wrong.
Config: Warning: Key EIDD6 is not set. Using '12' as the default. Please configure this value if this is wrong.
Config: Warning: Key Eopenrd is not set. Using '1.08108' as the default. Please configure this value if this is wrong.
Config: Warning: Key Erd is not set. Using '3.4054' as the default. Please configure this value if this is wrong.
Config: Warning: Key Eref is not set. Using '38.5585' as the default. Please configure this value if this is wrong.
Config: Warning: Key Ewr is not set. Using '1.02375' as the default. Please configure this value if this is wrong.
Config: Warning: Key Ewrpb is not set. Using '0.00199951' as the default. Please configure this value if this is wrong.
Config: Warning: Key Eactstdby is not set. Using '0.09009' as the default. Please configure this value if this is wrong.
Config: Warning: Key Eprestdby is not set. Using '0.083333' as the default. Please configure this value if this is wrong.
Config: Warning: Key Epda is not set. Using '0' as the default. Please configure this value if this is wrong.
Config: Warning: Key Epdpf is not set. Using '0' as the default. Please configure this value if this is wrong.
Config: Warning: Key Epdps is not set. Using '0' as the default. Please configure this value if this is wrong.
Config: Warning: Key Voltage is not set. Using '1.5' as the default. Please configure this value if this is wrong.
Config: Warning: Key Rtt_nom is not set. Using '30' as the default. Please configure this value if this is wrong.
Config: Warning: Key Rtt_wr is not set. Using '60' as the default. Please configure this value if this is wrong.
Config: Warning: Key Rtt_cont is not set. Using '75' as the default. Please configure this value if this is wrong.
Config: Warning: Key VDDQ is not set. Using '1.5' as the default. Please configure this value if this is wrong.
Config: Warning: Key VSSQ is not set. Using '0' as the default. Please configure this value if this is wrong.
Config: Warning: Key RanksPerDIMM is not set. Using '1' as the default. Please configure this value if this is wrong.
Config: Warning: Key EnduranceModel is not set. Using 'NullModel' as the default. Please configure this value if this is wrong.
Config: Warning: Key DataEncoder is not set. Using 'default' as the default. Please configure this value if this is wrong.
Config: Warning: Key EnergyModel is not set. Using 'current' as the default. Please configure this value if this is wrong.
Config: Warning: Key UseLowPower is not set. Using 'true' as the default. Please configure this value if this is wrong.
Config: Warning: Key PowerDownMode is not set. Using 'FASTEXIT' as the default. Please configure this value if this is wrong.
Config: Warning: Key InitPD is not set. Using 'false' as the default. Please configure this value if this is wrong.
Config: Warning: Key PrintGraphs is not set. Using 'false' as the default. Please configure this value if this is wrong.
Config: Warning: Key PrintAllDevices is not set. Using 'false' as the default. Please configure this value if this is wrong.
Config: Warning: Key PrintConfig is not set. Using 'false' as the default. Please configure this value if this is wrong.
Config: Warning: Key PrintPreTrace is not set. Using 'false' as the default. Please configure this value if this is wrong.
Config: Warning: Key EchoPreTrace is not set. Using 'false' as the default. Please configure this value if this is wrong.
Config: Warning: Key RefreshRows is not set. Using '4' as the default. Please configure this value if this is wrong.
Config: Warning: Key UseRefresh is not set. Using 'true' as the default. Please configure this value if this is wrong.
Config: Warning: Key StaggerRefresh is not set. Using 'false' as the default. Please configure this value if this is wrong.
Config: Warning: Key UsePrecharge is not set. Using 'true' as the default. Please configure this value if this is wrong.
Config: Warning: Key OffChipLatency is not set. Using '10' as the default. Please configure this value if this is wrong.
Config: Warning: Key PeriodicStatsInterval is not set. Using '0' as the default. Please configure this value if this is wrong.
Config: Warning: Key RAW is not set. Using '4' as the default. Please configure this value if this is wrong.
Config: Warning: Key RBSize is not set. Using '32' as the default. Please configure this value if this is wrong.
Config: Warning: Key tRDPDEN is not set. Using '24' as the default. Please configure this value if this is wrong.
Config: Warning: Key tWRPDEN is not set. Using '19' as the default. Please configure this value if this is wrong.
Config: Warning: Key tWRAPDEN is not set. Using '22' as the default. Please configure this value if this is wrong.
Config: Warning: Key ClosePage is not set. Using '1' as the default. Please configure this value if this is wrong.
Config: Warning: Key ScheduleScheme is not set. Using '1' as the default. Please configure this value if this is wrong.
Config: Warning: Key HighWaterMark is not set. Using '32' as the default. Please configure this value if this is wrong.
Config: Warning: Key LowWaterMark is not set. Using '16' as the default. Please configure this value if this is wrong.
Config: Warning: Key BanksPerRefresh is not set. Using '8' as the default. Please configure this value if this is wrong.
Config: Warning: Key DelayedRefreshThreshold is not set. Using '1' as the default. Please configure this value if this is wrong.
Config: Warning: Key AddressMappingScheme is not set. Using 'R:SA:RK:BK:CH:C' as the default. Please configure this value if this is wrong.
Config: Warning: Key MemoryPrefetcher is not set. Using 'none' as the default. Please configure this value if this is wrong.
Config: Warning: Key PrefetchBufferSize is not set. Using '32' as the default. Please configure this value if this is wrong.
Config: Warning: Key MLCLevels is not set. Using '1' as the default. Please configure this value if this is wrong.
Config: Warning: Key WPVariance is not set. Using '1' as the default. Please configure this value if this is wrong.
Config: Warning: Key UniformWrites is not set. Using 'true' as the default. Please configure this value if this is wrong.
Config: Warning: Key WriteAllBits is not set. Using 'true' as the default. Please configure this value if this is wrong.
Config: Warning: Key Ereset is not set. Using '0.054331' as the default. Please configure this value if this is wrong.
Config: Warning: Key Eset is not set. Using '0.101581' as the default. Please configure this value if this is wrong.
Config: Warning: Key nWP00 is not set. Using '0' as the default. Please configure this value if this is wrong.
Config: Warning: Key nWP01 is not set. Using '7' as the default. Please configure this value if this is wrong.
Config: Warning: Key nWP10 is not set. Using '5' as the default. Please configure this value if this is wrong.
Config: Warning: Key nWP11 is not set. Using '1' as the default. Please configure this value if this is wrong.
Config: Warning: Key WPMaxVariance is not set. Using '2' as the default. Please configure this value if this is wrong.
Config: Warning: Key DeadlockTimer is not set. Using '10000000' as the default. Please configure this value if this is wrong.
Config: Warning: Key EnableDebug is not set. Using 'false' as the default. Please configure this value if this is wrong.
Config: Warning: Key WritePausing is not set. Using 'false' as the default. Please configure this value if this is wrong.
Config: Warning: Key PauseThreshold is not set. Using '0.4' as the default. Please configure this value if this is wrong.
Config: Warning: Key MaxCancellations is not set. Using '4' as the default. Please configure this value if this is wrong.
cache line size is 64
NVMain: GlobalEventQueue: Added a memory subsystem running at 666MHz. My frequency is 3200MHz.
Config: Warning: Key BusWidth is not set. Using '64' as the default. Please configure this value if this is wrong.
Config: Warning: Key DeviceWidth is not set. Using '8' as the default. Please configure this value if this is wrong.
Config: Warning: Key RATE is not set. Using '2' as the default. Please configure this value if this is wrong.
Config: Warning: Key EIDD0 is not set. Using '85' as the default. Please configure this value if this is wrong.
Config: Warning: Key EIDD1 is not set. Using '54' as the default. Please configure this value if this is wrong.
Config: Warning: Key EIDD2P0 is not set. Using '30' as the default. Please configure this value if this is wrong.
Config: Warning: Key EIDD2P1 is not set. Using '30' as the default. Please configure this value if this is wrong.
Config: Warning: Key EIDD2N is not set. Using '37' as the default. Please configure this value if this is wrong.
Config: Warning: Key EIDD3P is not set. Using '35' as the default. Please configure this value if this is wrong.
Config: Warning: Key EIDD3N is not set. Using '40' as the default. Please configure this value if this is wrong.
Config: Warning: Key EIDD4R is not set. Using '160' as the default. Please configure this value if this is wrong.
Config: Warning: Key EIDD4W is not set. Using '165' as the default. Please configure this value if this is wrong.
Config: Warning: Key EIDD5B is not set. Using '200' as the default. Please configure this value if this is wrong.
Config: Warning: Key EIDD6 is not set. Using '12' as the default. Please configure this value if this is wrong.
Config: Warning: Key Eopenrd is not set. Using '1.08108' as the default. Please configure this value if this is wrong.
Config: Warning: Key Erd is not set. Using '3.4054' as the default. Please configure this value if this is wrong.
Config: Warning: Key Eref is not set. Using '38.5585' as the default. Please configure this value if this is wrong.
Config: Warning: Key Ewr is not set. Using '1.02375' as the default. Please configure this value if this is wrong.
Config: Warning: Key Ewrpb is not set. Using '0.00199951' as the default. Please configure this value if this is wrong.
Config: Warning: Key Eactstdby is not set. Using '0.09009' as the default. Please configure this value if this is wrong.
Config: Warning: Key Eprestdby is not set. Using '0.083333' as the default. Please configure this value if this is wrong.
Config: Warning: Key Epda is not set. Using '0' as the default. Please configure this value if this is wrong.
Config: Warning: Key Epdpf is not set. Using '0' as the default. Please configure this value if this is wrong.
Config: Warning: Key Epdps is not set. Using '0' as the default. Please configure this value if this is wrong.
Config: Warning: Key Voltage is not set. Using '1.5' as the default. Please configure this value if this is wrong.
Config: Warning: Key Rtt_nom is not set. Using '30' as the default. Please configure this value if this is wrong.
Config: Warning: Key Rtt_wr is not set. Using '60' as the default. Please configure this value if this is wrong.
Config: Warning: Key Rtt_cont is not set. Using '75' as the default. Please configure this value if this is wrong.
Config: Warning: Key VDDQ is not set. Using '1.5' as the default. Please configure this value if this is wrong.
Config: Warning: Key VSSQ is not set. Using '0' as the default. Please configure this value if this is wrong.
Config: Warning: Key RanksPerDIMM is not set. Using '1' as the default. Please configure this value if this is wrong.
Config: Warning: Key EnduranceModel is not set. Using 'NullModel' as the default. Please configure this value if this is wrong.
Config: Warning: Key DataEncoder is not set. Using 'default' as the default. Please configure this value if this is wrong.
Config: Warning: Key EnergyModel is not set. Using 'current' as the default. Please configure this value if this is wrong.
Config: Warning: Key UseLowPower is not set. Using 'true' as the default. Please configure this value if this is wrong.
Config: Warning: Key PowerDownMode is not set. Using 'FASTEXIT' as the default. Please configure this value if this is wrong.
Config: Warning: Key InitPD is not set. Using 'false' as the default. Please configure this value if this is wrong.
Config: Warning: Key PrintGraphs is not set. Using 'false' as the default. Please configure this value if this is wrong.
Config: Warning: Key PrintAllDevices is not set. Using 'false' as the default. Please configure this value if this is wrong.
Config: Warning: Key PrintConfig is not set. Using 'false' as the default. Please configure this value if this is wrong.
Config: Warning: Key PrintPreTrace is not set. Using 'false' as the default. Please configure this value if this is wrong.
Config: Warning: Key RefreshRows is not set. Using '4' as the default. Please configure this value if this is wrong.
Config: Warning: Key UseRefresh is not set. Using 'true' as the default. Please configure this value if this is wrong.
Config: Warning: Key StaggerRefresh is not set. Using 'false' as the default. Please configure this value if this is wrong.
Config: Warning: Key UsePrecharge is not set. Using 'true' as the default. Please configure this value if this is wrong.
Config: Warning: Key OffChipLatency is not set. Using '10' as the default. Please configure this value if this is wrong.
Config: Warning: Key PeriodicStatsInterval is not set. Using '0' as the default. Please configure this value if this is wrong.
Config: Warning: Key RAW is not set. Using '4' as the default. Please configure this value if this is wrong.
Config: Warning: Key RBSize is not set. Using '32' as the default. Please configure this value if this is wrong.
Config: Warning: Key tRDPDEN is not set. Using '24' as the default. Please configure this value if this is wrong.
Config: Warning: Key tWRPDEN is not set. Using '19' as the default. Please configure this value if this is wrong.
Config: Warning: Key tWRAPDEN is not set. Using '22' as the default. Please configure this value if this is wrong.
Config: Warning: Key ClosePage is not set. Using '1' as the default. Please configure this value if this is wrong.
Config: Warning: Key ScheduleScheme is not set. Using '1' as the default. Please configure this value if this is wrong.
Config: Warning: Key HighWaterMark is not set. Using '32' as the default. Please configure this value if this is wrong.
Config: Warning: Key LowWaterMark is not set. Using '16' as the default. Please configure this value if this is wrong.
Config: Warning: Key BanksPerRefresh is not set. Using '8' as the default. Please configure this value if this is wrong.
Config: Warning: Key DelayedRefreshThreshold is not set. Using '1' as the default. Please configure this value if this is wrong.
Config: Warning: Key MemoryPrefetcher is not set. Using 'none' as the default. Please configure this value if this is wrong.
Config: Warning: Key PrefetchBufferSize is not set. Using '32' as the default. Please configure this value if this is wrong.
Config: Warning: Key MLCLevels is not set. Using '1' as the default. Please configure this value if this is wrong.
Config: Warning: Key WPVariance is not set. Using '1' as the default. Please configure this value if this is wrong.
Config: Warning: Key UniformWrites is not set. Using 'true' as the default. Please configure this value if this is wrong.
Config: Warning: Key WriteAllBits is not set. Using 'true' as the default. Please configure this value if this is wrong.
Config: Warning: Key Ereset is not set. Using '0.054331' as the default. Please configure this value if this is wrong.
Config: Warning: Key Eset is not set. Using '0.101581' as the default. Please configure this value if this is wrong.
Config: Warning: Key nWP00 is not set. Using '0' as the default. Please configure this value if this is wrong.
Config: Warning: Key nWP01 is not set. Using '7' as the default. Please configure this value if this is wrong.
Config: Warning: Key nWP10 is not set. Using '5' as the default. Please configure this value if this is wrong.
Config: Warning: Key nWP11 is not set. Using '1' as the default. Please configure this value if this is wrong.
Config: Warning: Key WPMaxVariance is not set. Using '2' as the default. Please configure this value if this is wrong.
Config: Warning: Key DeadlockTimer is not set. Using '10000000' as the default. Please configure this value if this is wrong.
Config: Warning: Key EnableDebug is not set. Using 'false' as the default. Please configure this value if this is wrong.
Config: Warning: Key WritePausing is not set. Using 'false' as the default. Please configure this value if this is wrong.
Config: Warning: Key PauseThreshold is not set. Using '0.4' as the default. Please configure this value if this is wrong.
Config: Warning: Key MaxCancellations is not set. Using '4' as the default. Please configure this value if this is wrong.
Warning: Sim Interface should be allocated before configuration!
NVMain: the address mapping order is 
	Sub-Array 6
	Row 5
	Column 2
	Bank 3
	Rank 4
	Channel 1
Reading channel config file: nvmain/hdrc/NVM_channel.config
Created a First Ready First Come First Serve memory controller!
Config: Warning: Key EIDD0 is not set. Using '85' as the default. Please configure this value if this is wrong.
Config: Warning: Key EIDD1 is not set. Using '54' as the default. Please configure this value if this is wrong.
Config: Warning: Key EIDD2P0 is not set. Using '30' as the default. Please configure this value if this is wrong.
Config: Warning: Key EIDD2P1 is not set. Using '30' as the default. Please configure this value if this is wrong.
Config: Warning: Key EIDD2N is not set. Using '37' as the default. Please configure this value if this is wrong.
Config: Warning: Key EIDD3P is not set. Using '35' as the default. Please configure this value if this is wrong.
Config: Warning: Key EIDD3N is not set. Using '40' as the default. Please configure this value if this is wrong.
Config: Warning: Key EIDD4R is not set. Using '160' as the default. Please configure this value if this is wrong.
Config: Warning: Key EIDD4W is not set. Using '165' as the default. Please configure this value if this is wrong.
Config: Warning: Key EIDD5B is not set. Using '200' as the default. Please configure this value if this is wrong.
Config: Warning: Key EIDD6 is not set. Using '12' as the default. Please configure this value if this is wrong.
Config: Warning: Key Eactstdby is not set. Using '0.09009' as the default. Please configure this value if this is wrong.
Config: Warning: Key Eprestdby is not set. Using '0.083333' as the default. Please configure this value if this is wrong.
Config: Warning: Key Rtt_nom is not set. Using '30' as the default. Please configure this value if this is wrong.
Config: Warning: Key Rtt_wr is not set. Using '60' as the default. Please configure this value if this is wrong.
Config: Warning: Key Rtt_cont is not set. Using '75' as the default. Please configure this value if this is wrong.
Config: Warning: Key VDDQ is not set. Using '1.5' as the default. Please configure this value if this is wrong.
Config: Warning: Key VSSQ is not set. Using '0' as the default. Please configure this value if this is wrong.
Config: Warning: Key RanksPerDIMM is not set. Using '1' as the default. Please configure this value if this is wrong.
Config: Warning: Key DataEncoder is not set. Using 'default' as the default. Please configure this value if this is wrong.
Config: Warning: Key UseLowPower is not set. Using 'true' as the default. Please configure this value if this is wrong.
Config: Warning: Key PowerDownMode is not set. Using 'FASTEXIT' as the default. Please configure this value if this is wrong.
Config: Warning: Key PrintAllDevices is not set. Using 'false' as the default. Please configure this value if this is wrong.
Config: Warning: Key PrintConfig is not set. Using 'false' as the default. Please configure this value if this is wrong.
Config: Warning: Key StaggerRefresh is not set. Using 'false' as the default. Please configure this value if this is wrong.
Config: Warning: Key UsePrecharge is not set. Using 'true' as the default. Please configure this value if this is wrong.
Config: Warning: Key OffChipLatency is not set. Using '10' as the default. Please configure this value if this is wrong.
Config: Warning: Key RBSize is not set. Using '32' as the default. Please configure this value if this is wrong.
Config: Warning: Key MemoryPrefetcher is not set. Using 'none' as the default. Please configure this value if this is wrong.
Config: Warning: Key PrefetchBufferSize is not set. Using '32' as the default. Please configure this value if this is wrong.
Config: Warning: Key MLCLevels is not set. Using '1' as the default. Please configure this value if this is wrong.
Config: Warning: Key WPVariance is not set. Using '1' as the default. Please configure this value if this is wrong.
Config: Warning: Key UniformWrites is not set. Using 'true' as the default. Please configure this value if this is wrong.
Config: Warning: Key WriteAllBits is not set. Using 'true' as the default. Please configure this value if this is wrong.
Config: Warning: Key Ereset is not set. Using '0.054331' as the default. Please configure this value if this is wrong.
Config: Warning: Key Eset is not set. Using '0.101581' as the default. Please configure this value if this is wrong.
Config: Warning: Key nWP00 is not set. Using '0' as the default. Please configure this value if this is wrong.
Config: Warning: Key nWP01 is not set. Using '7' as the default. Please configure this value if this is wrong.
Config: Warning: Key nWP10 is not set. Using '5' as the default. Please configure this value if this is wrong.
Config: Warning: Key nWP11 is not set. Using '1' as the default. Please configure this value if this is wrong.
Config: Warning: Key WPMaxVariance is not set. Using '2' as the default. Please configure this value if this is wrong.
Config: Warning: Key DeadlockTimer is not set. Using '10000000' as the default. Please configure this value if this is wrong.
Config: Warning: Key EnableDebug is not set. Using 'false' as the default. Please configure this value if this is wrong.
Config: Warning: Key WritePausing is not set. Using 'false' as the default. Please configure this value if this is wrong.
Config: Warning: Key PauseThreshold is not set. Using '0.4' as the default. Please configure this value if this is wrong.
Config: Warning: Key MaxCancellations is not set. Using '4' as the default. Please configure this value if this is wrong.
Config: Warning: Key Decoder is not set. Using '' as the default. Please configure this value if this is wrong.
Config: Warning: Key RankType is not set. Using '' as the default. Please configure this value if this is wrong.
Creating 8 banks in all 8 devices.
Config: Warning: Key BankType is not set. Using '' as the default. Please configure this value if this is wrong.
NVMain: the address mapping order is 
	Sub-Array 6
	Row 5
	Column 2
	Bank 3
	Rank 4
	Channel 1
MainMemory.channel0.FRFCFS capacity is 2048 MB.
Creating 8 command queues.
Reading channel config file: nvmain/hdrc/NVM_channel.config
Created a First Ready First Come First Serve memory controller!
Config: Warning: Key EIDD0 is not set. Using '85' as the default. Please configure this value if this is wrong.
Config: Warning: Key EIDD1 is not set. Using '54' as the default. Please configure this value if this is wrong.
Config: Warning: Key EIDD2P0 is not set. Using '30' as the default. Please configure this value if this is wrong.
Config: Warning: Key EIDD2P1 is not set. Using '30' as the default. Please configure this value if this is wrong.
Config: Warning: Key EIDD2N is not set. Using '37' as the default. Please configure this value if this is wrong.
Config: Warning: Key EIDD3P is not set. Using '35' as the default. Please configure this value if this is wrong.
Config: Warning: Key EIDD3N is not set. Using '40' as the default. Please configure this value if this is wrong.
Config: Warning: Key EIDD4R is not set. Using '160' as the default. Please configure this value if this is wrong.
Config: Warning: Key EIDD4W is not set. Using '165' as the default. Please configure this value if this is wrong.
Config: Warning: Key EIDD5B is not set. Using '200' as the default. Please configure this value if this is wrong.
Config: Warning: Key EIDD6 is not set. Using '12' as the default. Please configure this value if this is wrong.
Config: Warning: Key Eactstdby is not set. Using '0.09009' as the default. Please configure this value if this is wrong.
Config: Warning: Key Eprestdby is not set. Using '0.083333' as the default. Please configure this value if this is wrong.
Config: Warning: Key Rtt_nom is not set. Using '30' as the default. Please configure this value if this is wrong.
Config: Warning: Key Rtt_wr is not set. Using '60' as the default. Please configure this value if this is wrong.
Config: Warning: Key Rtt_cont is not set. Using '75' as the default. Please configure this value if this is wrong.
Config: Warning: Key VDDQ is not set. Using '1.5' as the default. Please configure this value if this is wrong.
Config: Warning: Key VSSQ is not set. Using '0' as the default. Please configure this value if this is wrong.
Config: Warning: Key RanksPerDIMM is not set. Using '1' as the default. Please configure this value if this is wrong.
Config: Warning: Key DataEncoder is not set. Using 'default' as the default. Please configure this value if this is wrong.
Config: Warning: Key UseLowPower is not set. Using 'true' as the default. Please configure this value if this is wrong.
Config: Warning: Key PowerDownMode is not set. Using 'FASTEXIT' as the default. Please configure this value if this is wrong.
Config: Warning: Key PrintAllDevices is not set. Using 'false' as the default. Please configure this value if this is wrong.
Config: Warning: Key PrintConfig is not set. Using 'false' as the default. Please configure this value if this is wrong.
Config: Warning: Key StaggerRefresh is not set. Using 'false' as the default. Please configure this value if this is wrong.
Config: Warning: Key UsePrecharge is not set. Using 'true' as the default. Please configure this value if this is wrong.
Config: Warning: Key OffChipLatency is not set. Using '10' as the default. Please configure this value if this is wrong.
Config: Warning: Key RBSize is not set. Using '32' as the default. Please configure this value if this is wrong.
Config: Warning: Key MemoryPrefetcher is not set. Using 'none' as the default. Please configure this value if this is wrong.
Config: Warning: Key PrefetchBufferSize is not set. Using '32' as the default. Please configure this value if this is wrong.
Config: Warning: Key MLCLevels is not set. Using '1' as the default. Please configure this value if this is wrong.
Config: Warning: Key WPVariance is not set. Using '1' as the default. Please configure this value if this is wrong.
Config: Warning: Key UniformWrites is not set. Using 'true' as the default. Please configure this value if this is wrong.
Config: Warning: Key WriteAllBits is not set. Using 'true' as the default. Please configure this value if this is wrong.
Config: Warning: Key Ereset is not set. Using '0.054331' as the default. Please configure this value if this is wrong.
Config: Warning: Key Eset is not set. Using '0.101581' as the default. Please configure this value if this is wrong.
Config: Warning: Key nWP00 is not set. Using '0' as the default. Please configure this value if this is wrong.
Config: Warning: Key nWP01 is not set. Using '7' as the default. Please configure this value if this is wrong.
Config: Warning: Key nWP10 is not set. Using '5' as the default. Please configure this value if this is wrong.
Config: Warning: Key nWP11 is not set. Using '1' as the default. Please configure this value if this is wrong.
Config: Warning: Key WPMaxVariance is not set. Using '2' as the default. Please configure this value if this is wrong.
Config: Warning: Key DeadlockTimer is not set. Using '10000000' as the default. Please configure this value if this is wrong.
Config: Warning: Key EnableDebug is not set. Using 'false' as the default. Please configure this value if this is wrong.
Config: Warning: Key WritePausing is not set. Using 'false' as the default. Please configure this value if this is wrong.
Config: Warning: Key PauseThreshold is not set. Using '0.4' as the default. Please configure this value if this is wrong.
Config: Warning: Key MaxCancellations is not set. Using '4' as the default. Please configure this value if this is wrong.
Config: Warning: Key Decoder is not set. Using '' as the default. Please configure this value if this is wrong.
Config: Warning: Key RankType is not set. Using '' as the default. Please configure this value if this is wrong.
Creating 8 banks in all 8 devices.
Config: Warning: Key BankType is not set. Using '' as the default. Please configure this value if this is wrong.
NVMain: the address mapping order is 
	Sub-Array 6
	Row 5
	Column 2
	Bank 3
	Rank 4
	Channel 1
MainMemory.channel1.FRFCFS capacity is 2048 MB.
Creating 8 command queues.
Reading channel config file: nvmain/hdrc/NVM_channel.config
Created a First Ready First Come First Serve memory controller!
Config: Warning: Key EIDD0 is not set. Using '85' as the default. Please configure this value if this is wrong.
Config: Warning: Key EIDD1 is not set. Using '54' as the default. Please configure this value if this is wrong.
Config: Warning: Key EIDD2P0 is not set. Using '30' as the default. Please configure this value if this is wrong.
Config: Warning: Key EIDD2P1 is not set. Using '30' as the default. Please configure this value if this is wrong.
Config: Warning: Key EIDD2N is not set. Using '37' as the default. Please configure this value if this is wrong.
Config: Warning: Key EIDD3P is not set. Using '35' as the default. Please configure this value if this is wrong.
Config: Warning: Key EIDD3N is not set. Using '40' as the default. Please configure this value if this is wrong.
Config: Warning: Key EIDD4R is not set. Using '160' as the default. Please configure this value if this is wrong.
Config: Warning: Key EIDD4W is not set. Using '165' as the default. Please configure this value if this is wrong.
Config: Warning: Key EIDD5B is not set. Using '200' as the default. Please configure this value if this is wrong.
Config: Warning: Key EIDD6 is not set. Using '12' as the default. Please configure this value if this is wrong.
Config: Warning: Key Eactstdby is not set. Using '0.09009' as the default. Please configure this value if this is wrong.
Config: Warning: Key Eprestdby is not set. Using '0.083333' as the default. Please configure this value if this is wrong.
Config: Warning: Key Rtt_nom is not set. Using '30' as the default. Please configure this value if this is wrong.
Config: Warning: Key Rtt_wr is not set. Using '60' as the default. Please configure this value if this is wrong.
Config: Warning: Key Rtt_cont is not set. Using '75' as the default. Please configure this value if this is wrong.
Config: Warning: Key VDDQ is not set. Using '1.5' as the default. Please configure this value if this is wrong.
Config: Warning: Key VSSQ is not set. Using '0' as the default. Please configure this value if this is wrong.
Config: Warning: Key RanksPerDIMM is not set. Using '1' as the default. Please configure this value if this is wrong.
Config: Warning: Key DataEncoder is not set. Using 'default' as the default. Please configure this value if this is wrong.
Config: Warning: Key UseLowPower is not set. Using 'true' as the default. Please configure this value if this is wrong.
Config: Warning: Key PowerDownMode is not set. Using 'FASTEXIT' as the default. Please configure this value if this is wrong.
Config: Warning: Key PrintAllDevices is not set. Using 'false' as the default. Please configure this value if this is wrong.
Config: Warning: Key PrintConfig is not set. Using 'false' as the default. Please configure this value if this is wrong.
Config: Warning: Key StaggerRefresh is not set. Using 'false' as the default. Please configure this value if this is wrong.
Config: Warning: Key UsePrecharge is not set. Using 'true' as the default. Please configure this value if this is wrong.
Config: Warning: Key OffChipLatency is not set. Using '10' as the default. Please configure this value if this is wrong.
Config: Warning: Key RBSize is not set. Using '32' as the default. Please configure this value if this is wrong.
Config: Warning: Key MemoryPrefetcher is not set. Using 'none' as the default. Please configure this value if this is wrong.
Config: Warning: Key PrefetchBufferSize is not set. Using '32' as the default. Please configure this value if this is wrong.
Config: Warning: Key MLCLevels is not set. Using '1' as the default. Please configure this value if this is wrong.
Config: Warning: Key WPVariance is not set. Using '1' as the default. Please configure this value if this is wrong.
Config: Warning: Key UniformWrites is not set. Using 'true' as the default. Please configure this value if this is wrong.
Config: Warning: Key WriteAllBits is not set. Using 'true' as the default. Please configure this value if this is wrong.
Config: Warning: Key Ereset is not set. Using '0.054331' as the default. Please configure this value if this is wrong.
Config: Warning: Key Eset is not set. Using '0.101581' as the default. Please configure this value if this is wrong.
Config: Warning: Key nWP00 is not set. Using '0' as the default. Please configure this value if this is wrong.
Config: Warning: Key nWP01 is not set. Using '7' as the default. Please configure this value if this is wrong.
Config: Warning: Key nWP10 is not set. Using '5' as the default. Please configure this value if this is wrong.
Config: Warning: Key nWP11 is not set. Using '1' as the default. Please configure this value if this is wrong.
Config: Warning: Key WPMaxVariance is not set. Using '2' as the default. Please configure this value if this is wrong.
Config: Warning: Key DeadlockTimer is not set. Using '10000000' as the default. Please configure this value if this is wrong.
Config: Warning: Key EnableDebug is not set. Using 'false' as the default. Please configure this value if this is wrong.
Config: Warning: Key WritePausing is not set. Using 'false' as the default. Please configure this value if this is wrong.
Config: Warning: Key PauseThreshold is not set. Using '0.4' as the default. Please configure this value if this is wrong.
Config: Warning: Key MaxCancellations is not set. Using '4' as the default. Please configure this value if this is wrong.
Config: Warning: Key Decoder is not set. Using '' as the default. Please configure this value if this is wrong.
Config: Warning: Key RankType is not set. Using '' as the default. Please configure this value if this is wrong.
Creating 8 banks in all 8 devices.
Config: Warning: Key BankType is not set. Using '' as the default. Please configure this value if this is wrong.
NVMain: the address mapping order is 
	Sub-Array 6
	Row 5
	Column 2
	Bank 3
	Rank 4
	Channel 1
MainMemory.channel2.FRFCFS capacity is 2048 MB.
Creating 8 command queues.
Reading channel config file: nvmain/hdrc/NVM_channel.config
Created a First Ready First Come First Serve memory controller!
Config: Warning: Key EIDD0 is not set. Using '85' as the default. Please configure this value if this is wrong.
Config: Warning: Key EIDD1 is not set. Using '54' as the default. Please configure this value if this is wrong.
Config: Warning: Key EIDD2P0 is not set. Using '30' as the default. Please configure this value if this is wrong.
Config: Warning: Key EIDD2P1 is not set. Using '30' as the default. Please configure this value if this is wrong.
Config: Warning: Key EIDD2N is not set. Using '37' as the default. Please configure this value if this is wrong.
Config: Warning: Key EIDD3P is not set. Using '35' as the default. Please configure this value if this is wrong.
Config: Warning: Key EIDD3N is not set. Using '40' as the default. Please configure this value if this is wrong.
Config: Warning: Key EIDD4R is not set. Using '160' as the default. Please configure this value if this is wrong.
Config: Warning: Key EIDD4W is not set. Using '165' as the default. Please configure this value if this is wrong.
Config: Warning: Key EIDD5B is not set. Using '200' as the default. Please configure this value if this is wrong.
Config: Warning: Key EIDD6 is not set. Using '12' as the default. Please configure this value if this is wrong.
Config: Warning: Key Eactstdby is not set. Using '0.09009' as the default. Please configure this value if this is wrong.
Config: Warning: Key Eprestdby is not set. Using '0.083333' as the default. Please configure this value if this is wrong.
Config: Warning: Key Rtt_nom is not set. Using '30' as the default. Please configure this value if this is wrong.
Config: Warning: Key Rtt_wr is not set. Using '60' as the default. Please configure this value if this is wrong.
Config: Warning: Key Rtt_cont is not set. Using '75' as the default. Please configure this value if this is wrong.
Config: Warning: Key VDDQ is not set. Using '1.5' as the default. Please configure this value if this is wrong.
Config: Warning: Key VSSQ is not set. Using '0' as the default. Please configure this value if this is wrong.
Config: Warning: Key RanksPerDIMM is not set. Using '1' as the default. Please configure this value if this is wrong.
Config: Warning: Key DataEncoder is not set. Using 'default' as the default. Please configure this value if this is wrong.
Config: Warning: Key UseLowPower is not set. Using 'true' as the default. Please configure this value if this is wrong.
Config: Warning: Key PowerDownMode is not set. Using 'FASTEXIT' as the default. Please configure this value if this is wrong.
Config: Warning: Key PrintAllDevices is not set. Using 'false' as the default. Please configure this value if this is wrong.
Config: Warning: Key PrintConfig is not set. Using 'false' as the default. Please configure this value if this is wrong.
Config: Warning: Key StaggerRefresh is not set. Using 'false' as the default. Please configure this value if this is wrong.
Config: Warning: Key UsePrecharge is not set. Using 'true' as the default. Please configure this value if this is wrong.
Config: Warning: Key OffChipLatency is not set. Using '10' as the default. Please configure this value if this is wrong.
Config: Warning: Key RBSize is not set. Using '32' as the default. Please configure this value if this is wrong.
Config: Warning: Key MemoryPrefetcher is not set. Using 'none' as the default. Please configure this value if this is wrong.
Config: Warning: Key PrefetchBufferSize is not set. Using '32' as the default. Please configure this value if this is wrong.
Config: Warning: Key MLCLevels is not set. Using '1' as the default. Please configure this value if this is wrong.
Config: Warning: Key WPVariance is not set. Using '1' as the default. Please configure this value if this is wrong.
Config: Warning: Key UniformWrites is not set. Using 'true' as the default. Please configure this value if this is wrong.
Config: Warning: Key WriteAllBits is not set. Using 'true' as the default. Please configure this value if this is wrong.
Config: Warning: Key Ereset is not set. Using '0.054331' as the default. Please configure this value if this is wrong.
Config: Warning: Key Eset is not set. Using '0.101581' as the default. Please configure this value if this is wrong.
Config: Warning: Key nWP00 is not set. Using '0' as the default. Please configure this value if this is wrong.
Config: Warning: Key nWP01 is not set. Using '7' as the default. Please configure this value if this is wrong.
Config: Warning: Key nWP10 is not set. Using '5' as the default. Please configure this value if this is wrong.
Config: Warning: Key nWP11 is not set. Using '1' as the default. Please configure this value if this is wrong.
Config: Warning: Key WPMaxVariance is not set. Using '2' as the default. Please configure this value if this is wrong.
Config: Warning: Key DeadlockTimer is not set. Using '10000000' as the default. Please configure this value if this is wrong.
Config: Warning: Key EnableDebug is not set. Using 'false' as the default. Please configure this value if this is wrong.
Config: Warning: Key WritePausing is not set. Using 'false' as the default. Please configure this value if this is wrong.
Config: Warning: Key PauseThreshold is not set. Using '0.4' as the default. Please configure this value if this is wrong.
Config: Warning: Key MaxCancellations is not set. Using '4' as the default. Please configure this value if this is wrong.
Config: Warning: Key Decoder is not set. Using '' as the default. Please configure this value if this is wrong.
Config: Warning: Key RankType is not set. Using '' as the default. Please configure this value if this is wrong.
Creating 8 banks in all 8 devices.
Config: Warning: Key BankType is not set. Using '' as the default. Please configure this value if this is wrong.
NVMain: the address mapping order is 
	Sub-Array 6
	Row 5
	Column 2
	Bank 3
	Rank 4
	Channel 1
MainMemory.channel3.FRFCFS capacity is 2048 MB.
Creating 8 command queues.
drcChannels is:1
NVMain: the address mapping order is 
	Sub-Array 6
	Row 2
	Column 1
	Bank 3
	Rank 4
	Channel 5
Could not find Decoder named `'. Using default decoder.
Created a First Ready First Come First Serve memory controller!
Config: Warning: Key Rtt_nom is not set. Using '30' as the default. Please configure this value if this is wrong.
Config: Warning: Key Rtt_wr is not set. Using '60' as the default. Please configure this value if this is wrong.
Config: Warning: Key Rtt_cont is not set. Using '75' as the default. Please configure this value if this is wrong.
Config: Warning: Key VDDQ is not set. Using '1.5' as the default. Please configure this value if this is wrong.
Config: Warning: Key VSSQ is not set. Using '0' as the default. Please configure this value if this is wrong.
Config: Warning: Key RanksPerDIMM is not set. Using '1' as the default. Please configure this value if this is wrong.
Config: Warning: Key DataEncoder is not set. Using 'default' as the default. Please configure this value if this is wrong.
Config: Warning: Key PrintAllDevices is not set. Using 'false' as the default. Please configure this value if this is wrong.
Config: Warning: Key PrintConfig is not set. Using 'false' as the default. Please configure this value if this is wrong.
Config: Warning: Key StaggerRefresh is not set. Using 'false' as the default. Please configure this value if this is wrong.
Config: Warning: Key UsePrecharge is not set. Using 'true' as the default. Please configure this value if this is wrong.
Config: Warning: Key OffChipLatency is not set. Using '10' as the default. Please configure this value if this is wrong.
Config: Warning: Key RBSize is not set. Using '32' as the default. Please configure this value if this is wrong.
Config: Warning: Key MemoryPrefetcher is not set. Using 'none' as the default. Please configure this value if this is wrong.
Config: Warning: Key PrefetchBufferSize is not set. Using '32' as the default. Please configure this value if this is wrong.
Config: Warning: Key MLCLevels is not set. Using '1' as the default. Please configure this value if this is wrong.
Config: Warning: Key WPVariance is not set. Using '1' as the default. Please configure this value if this is wrong.
Config: Warning: Key UniformWrites is not set. Using 'true' as the default. Please configure this value if this is wrong.
Config: Warning: Key WriteAllBits is not set. Using 'true' as the default. Please configure this value if this is wrong.
Config: Warning: Key Ereset is not set. Using '0.054331' as the default. Please configure this value if this is wrong.
Config: Warning: Key Eset is not set. Using '0.101581' as the default. Please configure this value if this is wrong.
Config: Warning: Key nWP00 is not set. Using '0' as the default. Please configure this value if this is wrong.
Config: Warning: Key nWP01 is not set. Using '7' as the default. Please configure this value if this is wrong.
Config: Warning: Key nWP10 is not set. Using '5' as the default. Please configure this value if this is wrong.
Config: Warning: Key nWP11 is not set. Using '1' as the default. Please configure this value if this is wrong.
Config: Warning: Key WPMaxVariance is not set. Using '2' as the default. Please configure this value if this is wrong.
Config: Warning: Key DeadlockTimer is not set. Using '10000000' as the default. Please configure this value if this is wrong.
Config: Warning: Key EnableDebug is not set. Using 'false' as the default. Please configure this value if this is wrong.
Config: Warning: Key WritePausing is not set. Using 'false' as the default. Please configure this value if this is wrong.
Config: Warning: Key PauseThreshold is not set. Using '0.4' as the default. Please configure this value if this is wrong.
Config: Warning: Key MaxCancellations is not set. Using '4' as the default. Please configure this value if this is wrong.
Config: Warning: Key Decoder is not set. Using '' as the default. Please configure this value if this is wrong.
Config: Warning: Key RankType is not set. Using '' as the default. Please configure this value if this is wrong.
Creating 8 banks in all 8 devices.
Config: Warning: Key BankType is not set. Using '' as the default. Please configure this value if this is wrong.
NVMain: the address mapping order is 
	Sub-Array 6
	Row 5
	Column 2
	Bank 3
	Rank 4
	Channel 1
hierarch_dram.L0_cache.FRFCFS capacity is 256 MB.
Creating 8 command queues.
**** REAL SIMULATION ****
info: Entering event queue @ 0.  Starting simulation...
warn: instruction 'prefetch_nta' unimplemented
warn: instruction 'prefetch_nta' unimplemented
info: Increasing stack size by one page.
info: Increasing stack size by one page.
Exiting @ tick 3526035692500 because a thread reached the max instruction count
i0.MainMemory.channel0.FRFCFS.channel0.rank0.bank0.subarray0.subArrayEnergy 1.21846e+06nJ
i0.MainMemory.channel0.FRFCFS.channel0.rank0.bank0.subarray0.activeEnergy 23918.4nJ
i0.MainMemory.channel0.FRFCFS.channel0.rank0.bank0.subarray0.burstEnergy 25313.9nJ
i0.MainMemory.channel0.FRFCFS.channel0.rank0.bank0.subarray0.writeEnergy 1.16923e+06nJ
i0.MainMemory.channel0.FRFCFS.channel0.rank0.bank0.subarray0.refreshEnergy 0nJ
i0.MainMemory.channel0.FRFCFS.channel0.rank0.bank0.subarray0.cancelledWrites 0
i0.MainMemory.channel0.FRFCFS.channel0.rank0.bank0.subarray0.cancelledWriteTime 0
i0.MainMemory.channel0.FRFCFS.channel0.rank0.bank0.subarray0.pausedWrites 0
i0.MainMemory.channel0.FRFCFS.channel0.rank0.bank0.subarray0.averagePausesPerRequest 0
i0.MainMemory.channel0.FRFCFS.channel0.rank0.bank0.subarray0.measuredPauses 14670
i0.MainMemory.channel0.FRFCFS.channel0.rank0.bank0.subarray0.averagePausedRequestProgress 0
i0.MainMemory.channel0.FRFCFS.channel0.rank0.bank0.subarray0.measuredProgresses 0
i0.MainMemory.channel0.FRFCFS.channel0.rank0.bank0.subarray0.reads 369861
i0.MainMemory.channel0.FRFCFS.channel0.rank0.bank0.subarray0.writes 14670
i0.MainMemory.channel0.FRFCFS.channel0.rank0.bank0.subarray0.activates 294562
i0.MainMemory.channel0.FRFCFS.channel0.rank0.bank0.subarray0.precharges 294561
i0.MainMemory.channel0.FRFCFS.channel0.rank0.bank0.subarray0.refreshes 0
i0.MainMemory.channel0.FRFCFS.channel0.rank0.bank0.subarray0.worstCaseEndurance 18446744073709551615
i0.MainMemory.channel0.FRFCFS.channel0.rank0.bank0.subarray0.averageEndurance 0
i0.MainMemory.channel0.FRFCFS.channel0.rank0.bank0.subarray0.actWaits 365231
i0.MainMemory.channel0.FRFCFS.channel0.rank0.bank0.subarray0.actWaitTotal 36844419
i0.MainMemory.channel0.FRFCFS.channel0.rank0.bank0.subarray0.actWaitAverage 100.88
i0.MainMemory.channel0.FRFCFS.channel0.rank0.bank0.subarray0.worstCaseWrite 0
i0.MainMemory.channel0.FRFCFS.channel0.rank0.bank0.subarray0.num00Writes 0
i0.MainMemory.channel0.FRFCFS.channel0.rank0.bank0.subarray0.num01Writes 0
i0.MainMemory.channel0.FRFCFS.channel0.rank0.bank0.subarray0.num10Writes 0
i0.MainMemory.channel0.FRFCFS.channel0.rank0.bank0.subarray0.num11Writes 0
i0.MainMemory.channel0.FRFCFS.channel0.rank0.bank0.subarray0.averageWriteTime 200
i0.MainMemory.channel0.FRFCFS.channel0.rank0.bank0.subarray0.measuredWriteTimes 14624
i0.MainMemory.channel0.FRFCFS.channel0.rank0.bank0.subarray0.mlcTimingHisto {}
i0.MainMemory.channel0.FRFCFS.channel0.rank0.bank0.subarray0.cancelCountHisto {0: 14669}
i0.MainMemory.channel0.FRFCFS.channel0.rank0.bank0.subarray0.wpPauseHisto {}
i0.MainMemory.channel0.FRFCFS.channel0.rank0.bank0.subarray0.wpCancelHisto {}
i0.MainMemory.channel0.FRFCFS.channel0.rank0.bank0.bankEnergy 1.21846e+06nJ
i0.MainMemory.channel0.FRFCFS.channel0.rank0.bank0.activeEnergy 23918.4nJ
i0.MainMemory.channel0.FRFCFS.channel0.rank0.bank0.burstEnergy 25313.9nJ
i0.MainMemory.channel0.FRFCFS.channel0.rank0.bank0.refreshEnergy 0nJ
i0.MainMemory.channel0.FRFCFS.channel0.rank0.bank0.bankPower 1.66035e+06W
i0.MainMemory.channel0.FRFCFS.channel0.rank0.bank0.activePower 32592.9W
i0.MainMemory.channel0.FRFCFS.channel0.rank0.bank0.burstPower 34494.4W
i0.MainMemory.channel0.FRFCFS.channel0.rank0.bank0.refreshPower 0W
i0.MainMemory.channel0.FRFCFS.channel0.rank0.bank0.bandwidth 357.351MB/s
i0.MainMemory.channel0.FRFCFS.channel0.rank0.bank0.dataCycles 3076248
i0.MainMemory.channel0.FRFCFS.channel0.rank0.bank0.powerCycles 733854688
i0.MainMemory.channel0.FRFCFS.channel0.rank0.bank0.utilization 0.0041919
i0.MainMemory.channel0.FRFCFS.channel0.rank0.bank0.reads 369861
i0.MainMemory.channel0.FRFCFS.channel0.rank0.bank0.writes 14670
i0.MainMemory.channel0.FRFCFS.channel0.rank0.bank0.activates 294562
i0.MainMemory.channel0.FRFCFS.channel0.rank0.bank0.precharges 294561
i0.MainMemory.channel0.FRFCFS.channel0.rank0.bank0.refreshes 0
i0.MainMemory.channel0.FRFCFS.channel0.rank0.bank0.activeCycles 697809242
i0.MainMemory.channel0.FRFCFS.channel0.rank0.bank0.standbyCycles 36045446
i0.MainMemory.channel0.FRFCFS.channel0.rank0.bank0.fastExitActiveCycles 0
i0.MainMemory.channel0.FRFCFS.channel0.rank0.bank0.fastExitPrechargeCycles 0
i0.MainMemory.channel0.FRFCFS.channel0.rank0.bank0.slowExitPrechargeCycles 0
i0.MainMemory.channel0.FRFCFS.channel0.rank0.bank0.actWaits 0
i0.MainMemory.channel0.FRFCFS.channel0.rank0.bank0.actWaitTotal 0
i0.MainMemory.channel0.FRFCFS.channel0.rank0.bank0.actWaitAverage -nan
i0.MainMemory.channel0.FRFCFS.channel0.rank0.bank0.averageEndurance 0
i0.MainMemory.channel0.FRFCFS.channel0.rank0.bank0.worstCaseEndurance 18446744073709551615
i0.MainMemory.channel0.FRFCFS.channel0.rank0.bank1.subarray0.subArrayEnergy 1.28267e+06nJ
i0.MainMemory.channel0.FRFCFS.channel0.rank0.bank1.subarray0.activeEnergy 23902.8nJ
i0.MainMemory.channel0.FRFCFS.channel0.rank0.bank1.subarray0.burstEnergy 26638.9nJ
i0.MainMemory.channel0.FRFCFS.channel0.rank0.bank1.subarray0.writeEnergy 1.23213e+06nJ
i0.MainMemory.channel0.FRFCFS.channel0.rank0.bank1.subarray0.refreshEnergy 0nJ
i0.MainMemory.channel0.FRFCFS.channel0.rank0.bank1.subarray0.cancelledWrites 0
i0.MainMemory.channel0.FRFCFS.channel0.rank0.bank1.subarray0.cancelledWriteTime 0
i0.MainMemory.channel0.FRFCFS.channel0.rank0.bank1.subarray0.pausedWrites 0
i0.MainMemory.channel0.FRFCFS.channel0.rank0.bank1.subarray0.averagePausesPerRequest 0
i0.MainMemory.channel0.FRFCFS.channel0.rank0.bank1.subarray0.measuredPauses 15457
i0.MainMemory.channel0.FRFCFS.channel0.rank0.bank1.subarray0.averagePausedRequestProgress 0
i0.MainMemory.channel0.FRFCFS.channel0.rank0.bank1.subarray0.measuredProgresses 0
i0.MainMemory.channel0.FRFCFS.channel0.rank0.bank1.subarray0.reads 369318
i0.MainMemory.channel0.FRFCFS.channel0.rank0.bank1.subarray0.writes 15457
i0.MainMemory.channel0.FRFCFS.channel0.rank0.bank1.subarray0.activates 294369
i0.MainMemory.channel0.FRFCFS.channel0.rank0.bank1.subarray0.precharges 294368
i0.MainMemory.channel0.FRFCFS.channel0.rank0.bank1.subarray0.refreshes 0
i0.MainMemory.channel0.FRFCFS.channel0.rank0.bank1.subarray0.worstCaseEndurance 18446744073709551615
i0.MainMemory.channel0.FRFCFS.channel0.rank0.bank1.subarray0.averageEndurance 0
i0.MainMemory.channel0.FRFCFS.channel0.rank0.bank1.subarray0.actWaits 364766
i0.MainMemory.channel0.FRFCFS.channel0.rank0.bank1.subarray0.actWaitTotal 36874769
i0.MainMemory.channel0.FRFCFS.channel0.rank0.bank1.subarray0.actWaitAverage 101.092
i0.MainMemory.channel0.FRFCFS.channel0.rank0.bank1.subarray0.worstCaseWrite 0
i0.MainMemory.channel0.FRFCFS.channel0.rank0.bank1.subarray0.num00Writes 0
i0.MainMemory.channel0.FRFCFS.channel0.rank0.bank1.subarray0.num01Writes 0
i0.MainMemory.channel0.FRFCFS.channel0.rank0.bank1.subarray0.num10Writes 0
i0.MainMemory.channel0.FRFCFS.channel0.rank0.bank1.subarray0.num11Writes 0
i0.MainMemory.channel0.FRFCFS.channel0.rank0.bank1.subarray0.averageWriteTime 200
i0.MainMemory.channel0.FRFCFS.channel0.rank0.bank1.subarray0.measuredWriteTimes 15413
i0.MainMemory.channel0.FRFCFS.channel0.rank0.bank1.subarray0.mlcTimingHisto {}
i0.MainMemory.channel0.FRFCFS.channel0.rank0.bank1.subarray0.cancelCountHisto {0: 15456}
i0.MainMemory.channel0.FRFCFS.channel0.rank0.bank1.subarray0.wpPauseHisto {}
i0.MainMemory.channel0.FRFCFS.channel0.rank0.bank1.subarray0.wpCancelHisto {}
i0.MainMemory.channel0.FRFCFS.channel0.rank0.bank1.bankEnergy 1.28267e+06nJ
i0.MainMemory.channel0.FRFCFS.channel0.rank0.bank1.activeEnergy 23902.8nJ
i0.MainMemory.channel0.FRFCFS.channel0.rank0.bank1.burstEnergy 26638.9nJ
i0.MainMemory.channel0.FRFCFS.channel0.rank0.bank1.refreshEnergy 0nJ
i0.MainMemory.channel0.FRFCFS.channel0.rank0.bank1.bankPower 1.74785e+06W
i0.MainMemory.channel0.FRFCFS.channel0.rank0.bank1.activePower 32571.5W
i0.MainMemory.channel0.FRFCFS.channel0.rank0.bank1.burstPower 36300W
i0.MainMemory.channel0.FRFCFS.channel0.rank0.bank1.refreshPower 0W
i0.MainMemory.channel0.FRFCFS.channel0.rank0.bank1.bandwidth 357.578MB/s
i0.MainMemory.channel0.FRFCFS.channel0.rank0.bank1.dataCycles 3078200
i0.MainMemory.channel0.FRFCFS.channel0.rank0.bank1.powerCycles 733854688
i0.MainMemory.channel0.FRFCFS.channel0.rank0.bank1.utilization 0.00419456
i0.MainMemory.channel0.FRFCFS.channel0.rank0.bank1.reads 369318
i0.MainMemory.channel0.FRFCFS.channel0.rank0.bank1.writes 15457
i0.MainMemory.channel0.FRFCFS.channel0.rank0.bank1.activates 294369
i0.MainMemory.channel0.FRFCFS.channel0.rank0.bank1.precharges 294368
i0.MainMemory.channel0.FRFCFS.channel0.rank0.bank1.refreshes 0
i0.MainMemory.channel0.FRFCFS.channel0.rank0.bank1.activeCycles 696869248
i0.MainMemory.channel0.FRFCFS.channel0.rank0.bank1.standbyCycles 36985440
i0.MainMemory.channel0.FRFCFS.channel0.rank0.bank1.fastExitActiveCycles 0
i0.MainMemory.channel0.FRFCFS.channel0.rank0.bank1.fastExitPrechargeCycles 0
i0.MainMemory.channel0.FRFCFS.channel0.rank0.bank1.slowExitPrechargeCycles 0
i0.MainMemory.channel0.FRFCFS.channel0.rank0.bank1.actWaits 0
i0.MainMemory.channel0.FRFCFS.channel0.rank0.bank1.actWaitTotal 0
i0.MainMemory.channel0.FRFCFS.channel0.rank0.bank1.actWaitAverage -nan
i0.MainMemory.channel0.FRFCFS.channel0.rank0.bank1.averageEndurance 0
i0.MainMemory.channel0.FRFCFS.channel0.rank0.bank1.worstCaseEndurance 18446744073709551615
i0.MainMemory.channel0.FRFCFS.channel0.rank0.bank2.subarray0.subArrayEnergy 1.18983e+06nJ
i0.MainMemory.channel0.FRFCFS.channel0.rank0.bank2.subarray0.activeEnergy 23830.7nJ
i0.MainMemory.channel0.FRFCFS.channel0.rank0.bank2.subarray0.burstEnergy 24992.4nJ
i0.MainMemory.channel0.FRFCFS.channel0.rank0.bank2.subarray0.writeEnergy 1.14101e+06nJ
i0.MainMemory.channel0.FRFCFS.channel0.rank0.bank2.subarray0.refreshEnergy 0nJ
i0.MainMemory.channel0.FRFCFS.channel0.rank0.bank2.subarray0.cancelledWrites 0
i0.MainMemory.channel0.FRFCFS.channel0.rank0.bank2.subarray0.cancelledWriteTime 0
i0.MainMemory.channel0.FRFCFS.channel0.rank0.bank2.subarray0.pausedWrites 0
i0.MainMemory.channel0.FRFCFS.channel0.rank0.bank2.subarray0.averagePausesPerRequest 0
i0.MainMemory.channel0.FRFCFS.channel0.rank0.bank2.subarray0.measuredPauses 14479
i0.MainMemory.channel0.FRFCFS.channel0.rank0.bank2.subarray0.averagePausedRequestProgress 0
i0.MainMemory.channel0.FRFCFS.channel0.rank0.bank2.subarray0.measuredProgresses 0
i0.MainMemory.channel0.FRFCFS.channel0.rank0.bank2.subarray0.reads 370061
i0.MainMemory.channel0.FRFCFS.channel0.rank0.bank2.subarray0.writes 14479
i0.MainMemory.channel0.FRFCFS.channel0.rank0.bank2.subarray0.activates 293481
i0.MainMemory.channel0.FRFCFS.channel0.rank0.bank2.subarray0.precharges 293480
i0.MainMemory.channel0.FRFCFS.channel0.rank0.bank2.subarray0.refreshes 0
i0.MainMemory.channel0.FRFCFS.channel0.rank0.bank2.subarray0.worstCaseEndurance 18446744073709551615
i0.MainMemory.channel0.FRFCFS.channel0.rank0.bank2.subarray0.averageEndurance 0
i0.MainMemory.channel0.FRFCFS.channel0.rank0.bank2.subarray0.actWaits 361236
i0.MainMemory.channel0.FRFCFS.channel0.rank0.bank2.subarray0.actWaitTotal 36473490
i0.MainMemory.channel0.FRFCFS.channel0.rank0.bank2.subarray0.actWaitAverage 100.969
i0.MainMemory.channel0.FRFCFS.channel0.rank0.bank2.subarray0.worstCaseWrite 0
i0.MainMemory.channel0.FRFCFS.channel0.rank0.bank2.subarray0.num00Writes 0
i0.MainMemory.channel0.FRFCFS.channel0.rank0.bank2.subarray0.num01Writes 0
i0.MainMemory.channel0.FRFCFS.channel0.rank0.bank2.subarray0.num10Writes 0
i0.MainMemory.channel0.FRFCFS.channel0.rank0.bank2.subarray0.num11Writes 0
i0.MainMemory.channel0.FRFCFS.channel0.rank0.bank2.subarray0.averageWriteTime 200
i0.MainMemory.channel0.FRFCFS.channel0.rank0.bank2.subarray0.measuredWriteTimes 14108
i0.MainMemory.channel0.FRFCFS.channel0.rank0.bank2.subarray0.mlcTimingHisto {}
i0.MainMemory.channel0.FRFCFS.channel0.rank0.bank2.subarray0.cancelCountHisto {0: 14478}
i0.MainMemory.channel0.FRFCFS.channel0.rank0.bank2.subarray0.wpPauseHisto {}
i0.MainMemory.channel0.FRFCFS.channel0.rank0.bank2.subarray0.wpCancelHisto {}
i0.MainMemory.channel0.FRFCFS.channel0.rank0.bank2.bankEnergy 1.18983e+06nJ
i0.MainMemory.channel0.FRFCFS.channel0.rank0.bank2.activeEnergy 23830.7nJ
i0.MainMemory.channel0.FRFCFS.channel0.rank0.bank2.burstEnergy 24992.4nJ
i0.MainMemory.channel0.FRFCFS.channel0.rank0.bank2.refreshEnergy 0nJ
i0.MainMemory.channel0.FRFCFS.channel0.rank0.bank2.bankPower 1.62134e+06W
i0.MainMemory.channel0.FRFCFS.channel0.rank0.bank2.activePower 32473.3W
i0.MainMemory.channel0.FRFCFS.channel0.rank0.bank2.burstPower 34056.3W
i0.MainMemory.channel0.FRFCFS.channel0.rank0.bank2.refreshPower 0W
i0.MainMemory.channel0.FRFCFS.channel0.rank0.bank2.bandwidth 357.36MB/s
i0.MainMemory.channel0.FRFCFS.channel0.rank0.bank2.dataCycles 3076320
i0.MainMemory.channel0.FRFCFS.channel0.rank0.bank2.powerCycles 733854688
i0.MainMemory.channel0.FRFCFS.channel0.rank0.bank2.utilization 0.004192
i0.MainMemory.channel0.FRFCFS.channel0.rank0.bank2.reads 370061
i0.MainMemory.channel0.FRFCFS.channel0.rank0.bank2.writes 14479
i0.MainMemory.channel0.FRFCFS.channel0.rank0.bank2.activates 293481
i0.MainMemory.channel0.FRFCFS.channel0.rank0.bank2.precharges 293480
i0.MainMemory.channel0.FRFCFS.channel0.rank0.bank2.refreshes 0
i0.MainMemory.channel0.FRFCFS.channel0.rank0.bank2.activeCycles 698029525
i0.MainMemory.channel0.FRFCFS.channel0.rank0.bank2.standbyCycles 35825163
i0.MainMemory.channel0.FRFCFS.channel0.rank0.bank2.fastExitActiveCycles 0
i0.MainMemory.channel0.FRFCFS.channel0.rank0.bank2.fastExitPrechargeCycles 0
i0.MainMemory.channel0.FRFCFS.channel0.rank0.bank2.slowExitPrechargeCycles 0
i0.MainMemory.channel0.FRFCFS.channel0.rank0.bank2.actWaits 0
i0.MainMemory.channel0.FRFCFS.channel0.rank0.bank2.actWaitTotal 0
i0.MainMemory.channel0.FRFCFS.channel0.rank0.bank2.actWaitAverage -nan
i0.MainMemory.channel0.FRFCFS.channel0.rank0.bank2.averageEndurance 0
i0.MainMemory.channel0.FRFCFS.channel0.rank0.bank2.worstCaseEndurance 18446744073709551615
i0.MainMemory.channel0.FRFCFS.channel0.rank0.bank3.subarray0.subArrayEnergy 1.27817e+06nJ
i0.MainMemory.channel0.FRFCFS.channel0.rank0.bank3.subarray0.activeEnergy 23785.2nJ
i0.MainMemory.channel0.FRFCFS.channel0.rank0.bank3.subarray0.burstEnergy 26563.2nJ
i0.MainMemory.channel0.FRFCFS.channel0.rank0.bank3.subarray0.writeEnergy 1.22782e+06nJ
i0.MainMemory.channel0.FRFCFS.channel0.rank0.bank3.subarray0.refreshEnergy 0nJ
i0.MainMemory.channel0.FRFCFS.channel0.rank0.bank3.subarray0.cancelledWrites 0
i0.MainMemory.channel0.FRFCFS.channel0.rank0.bank3.subarray0.cancelledWriteTime 0
i0.MainMemory.channel0.FRFCFS.channel0.rank0.bank3.subarray0.pausedWrites 0
i0.MainMemory.channel0.FRFCFS.channel0.rank0.bank3.subarray0.averagePausesPerRequest 0
i0.MainMemory.channel0.FRFCFS.channel0.rank0.bank3.subarray0.measuredPauses 15412
i0.MainMemory.channel0.FRFCFS.channel0.rank0.bank3.subarray0.averagePausedRequestProgress 0
i0.MainMemory.channel0.FRFCFS.channel0.rank0.bank3.subarray0.measuredProgresses 0
i0.MainMemory.channel0.FRFCFS.channel0.rank0.bank3.subarray0.reads 369373
i0.MainMemory.channel0.FRFCFS.channel0.rank0.bank3.subarray0.writes 15412
i0.MainMemory.channel0.FRFCFS.channel0.rank0.bank3.subarray0.activates 292921
i0.MainMemory.channel0.FRFCFS.channel0.rank0.bank3.subarray0.precharges 292920
i0.MainMemory.channel0.FRFCFS.channel0.rank0.bank3.subarray0.refreshes 0
i0.MainMemory.channel0.FRFCFS.channel0.rank0.bank3.subarray0.worstCaseEndurance 18446744073709551615
i0.MainMemory.channel0.FRFCFS.channel0.rank0.bank3.subarray0.averageEndurance 0
i0.MainMemory.channel0.FRFCFS.channel0.rank0.bank3.subarray0.actWaits 360290
i0.MainMemory.channel0.FRFCFS.channel0.rank0.bank3.subarray0.actWaitTotal 36501507
i0.MainMemory.channel0.FRFCFS.channel0.rank0.bank3.subarray0.actWaitAverage 101.311
i0.MainMemory.channel0.FRFCFS.channel0.rank0.bank3.subarray0.worstCaseWrite 0
i0.MainMemory.channel0.FRFCFS.channel0.rank0.bank3.subarray0.num00Writes 0
i0.MainMemory.channel0.FRFCFS.channel0.rank0.bank3.subarray0.num01Writes 0
i0.MainMemory.channel0.FRFCFS.channel0.rank0.bank3.subarray0.num10Writes 0
i0.MainMemory.channel0.FRFCFS.channel0.rank0.bank3.subarray0.num11Writes 0
i0.MainMemory.channel0.FRFCFS.channel0.rank0.bank3.subarray0.averageWriteTime 200
i0.MainMemory.channel0.FRFCFS.channel0.rank0.bank3.subarray0.measuredWriteTimes 15350
i0.MainMemory.channel0.FRFCFS.channel0.rank0.bank3.subarray0.mlcTimingHisto {}
i0.MainMemory.channel0.FRFCFS.channel0.rank0.bank3.subarray0.cancelCountHisto {0: 15411}
i0.MainMemory.channel0.FRFCFS.channel0.rank0.bank3.subarray0.wpPauseHisto {}
i0.MainMemory.channel0.FRFCFS.channel0.rank0.bank3.subarray0.wpCancelHisto {}
i0.MainMemory.channel0.FRFCFS.channel0.rank0.bank3.bankEnergy 1.27817e+06nJ
i0.MainMemory.channel0.FRFCFS.channel0.rank0.bank3.activeEnergy 23785.2nJ
i0.MainMemory.channel0.FRFCFS.channel0.rank0.bank3.burstEnergy 26563.2nJ
i0.MainMemory.channel0.FRFCFS.channel0.rank0.bank3.refreshEnergy 0nJ
i0.MainMemory.channel0.FRFCFS.channel0.rank0.bank3.bankPower 1.74172e+06W
i0.MainMemory.channel0.FRFCFS.channel0.rank0.bank3.activePower 32411.3W
i0.MainMemory.channel0.FRFCFS.channel0.rank0.bank3.burstPower 36196.8W
i0.MainMemory.channel0.FRFCFS.channel0.rank0.bank3.refreshPower 0W
i0.MainMemory.channel0.FRFCFS.channel0.rank0.bank3.bandwidth 357.587MB/s
i0.MainMemory.channel0.FRFCFS.channel0.rank0.bank3.dataCycles 3078280
i0.MainMemory.channel0.FRFCFS.channel0.rank0.bank3.powerCycles 733854688
i0.MainMemory.channel0.FRFCFS.channel0.rank0.bank3.utilization 0.00419467
i0.MainMemory.channel0.FRFCFS.channel0.rank0.bank3.reads 369373
i0.MainMemory.channel0.FRFCFS.channel0.rank0.bank3.writes 15412
i0.MainMemory.channel0.FRFCFS.channel0.rank0.bank3.activates 292921
i0.MainMemory.channel0.FRFCFS.channel0.rank0.bank3.precharges 292920
i0.MainMemory.channel0.FRFCFS.channel0.rank0.bank3.refreshes 0
i0.MainMemory.channel0.FRFCFS.channel0.rank0.bank3.activeCycles 697582823
i0.MainMemory.channel0.FRFCFS.channel0.rank0.bank3.standbyCycles 36271865
i0.MainMemory.channel0.FRFCFS.channel0.rank0.bank3.fastExitActiveCycles 0
i0.MainMemory.channel0.FRFCFS.channel0.rank0.bank3.fastExitPrechargeCycles 0
i0.MainMemory.channel0.FRFCFS.channel0.rank0.bank3.slowExitPrechargeCycles 0
i0.MainMemory.channel0.FRFCFS.channel0.rank0.bank3.actWaits 0
i0.MainMemory.channel0.FRFCFS.channel0.rank0.bank3.actWaitTotal 0
i0.MainMemory.channel0.FRFCFS.channel0.rank0.bank3.actWaitAverage -nan
i0.MainMemory.channel0.FRFCFS.channel0.rank0.bank3.averageEndurance 0
i0.MainMemory.channel0.FRFCFS.channel0.rank0.bank3.worstCaseEndurance 18446744073709551615
i0.MainMemory.channel0.FRFCFS.channel0.rank0.bank4.subarray0.subArrayEnergy 1.27792e+06nJ
i0.MainMemory.channel0.FRFCFS.channel0.rank0.bank4.subarray0.activeEnergy 23825.3nJ
i0.MainMemory.channel0.FRFCFS.channel0.rank0.bank4.subarray0.burstEnergy 26553.2nJ
i0.MainMemory.channel0.FRFCFS.channel0.rank0.bank4.subarray0.writeEnergy 1.22754e+06nJ
i0.MainMemory.channel0.FRFCFS.channel0.rank0.bank4.subarray0.refreshEnergy 0nJ
i0.MainMemory.channel0.FRFCFS.channel0.rank0.bank4.subarray0.cancelledWrites 0
i0.MainMemory.channel0.FRFCFS.channel0.rank0.bank4.subarray0.cancelledWriteTime 0
i0.MainMemory.channel0.FRFCFS.channel0.rank0.bank4.subarray0.pausedWrites 0
i0.MainMemory.channel0.FRFCFS.channel0.rank0.bank4.subarray0.averagePausesPerRequest 0
i0.MainMemory.channel0.FRFCFS.channel0.rank0.bank4.subarray0.measuredPauses 15406
i0.MainMemory.channel0.FRFCFS.channel0.rank0.bank4.subarray0.averagePausedRequestProgress 0
i0.MainMemory.channel0.FRFCFS.channel0.rank0.bank4.subarray0.measuredProgresses 0
i0.MainMemory.channel0.FRFCFS.channel0.rank0.bank4.subarray0.reads 369439
i0.MainMemory.channel0.FRFCFS.channel0.rank0.bank4.subarray0.writes 15406
i0.MainMemory.channel0.FRFCFS.channel0.rank0.bank4.subarray0.activates 293415
i0.MainMemory.channel0.FRFCFS.channel0.rank0.bank4.subarray0.precharges 293414
i0.MainMemory.channel0.FRFCFS.channel0.rank0.bank4.subarray0.refreshes 0
i0.MainMemory.channel0.FRFCFS.channel0.rank0.bank4.subarray0.worstCaseEndurance 18446744073709551615
i0.MainMemory.channel0.FRFCFS.channel0.rank0.bank4.subarray0.averageEndurance 0
i0.MainMemory.channel0.FRFCFS.channel0.rank0.bank4.subarray0.actWaits 361591
i0.MainMemory.channel0.FRFCFS.channel0.rank0.bank4.subarray0.actWaitTotal 36570363
i0.MainMemory.channel0.FRFCFS.channel0.rank0.bank4.subarray0.actWaitAverage 101.137
i0.MainMemory.channel0.FRFCFS.channel0.rank0.bank4.subarray0.worstCaseWrite 0
i0.MainMemory.channel0.FRFCFS.channel0.rank0.bank4.subarray0.num00Writes 0
i0.MainMemory.channel0.FRFCFS.channel0.rank0.bank4.subarray0.num01Writes 0
i0.MainMemory.channel0.FRFCFS.channel0.rank0.bank4.subarray0.num10Writes 0
i0.MainMemory.channel0.FRFCFS.channel0.rank0.bank4.subarray0.num11Writes 0
i0.MainMemory.channel0.FRFCFS.channel0.rank0.bank4.subarray0.averageWriteTime 200
i0.MainMemory.channel0.FRFCFS.channel0.rank0.bank4.subarray0.measuredWriteTimes 15349
i0.MainMemory.channel0.FRFCFS.channel0.rank0.bank4.subarray0.mlcTimingHisto {}
i0.MainMemory.channel0.FRFCFS.channel0.rank0.bank4.subarray0.cancelCountHisto {0: 15405}
i0.MainMemory.channel0.FRFCFS.channel0.rank0.bank4.subarray0.wpPauseHisto {}
i0.MainMemory.channel0.FRFCFS.channel0.rank0.bank4.subarray0.wpCancelHisto {}
i0.MainMemory.channel0.FRFCFS.channel0.rank0.bank4.bankEnergy 1.27792e+06nJ
i0.MainMemory.channel0.FRFCFS.channel0.rank0.bank4.activeEnergy 23825.3nJ
i0.MainMemory.channel0.FRFCFS.channel0.rank0.bank4.burstEnergy 26553.2nJ
i0.MainMemory.channel0.FRFCFS.channel0.rank0.bank4.refreshEnergy 0nJ
i0.MainMemory.channel0.FRFCFS.channel0.rank0.bank4.bankPower 1.74138e+06W
i0.MainMemory.channel0.FRFCFS.channel0.rank0.bank4.activePower 32466W
i0.MainMemory.channel0.FRFCFS.channel0.rank0.bank4.burstPower 36183.2W
i0.MainMemory.channel0.FRFCFS.channel0.rank0.bank4.refreshPower 0W
i0.MainMemory.channel0.FRFCFS.channel0.rank0.bank4.bandwidth 357.643MB/s
i0.MainMemory.channel0.FRFCFS.channel0.rank0.bank4.dataCycles 3078760
i0.MainMemory.channel0.FRFCFS.channel0.rank0.bank4.powerCycles 733854688
i0.MainMemory.channel0.FRFCFS.channel0.rank0.bank4.utilization 0.00419533
i0.MainMemory.channel0.FRFCFS.channel0.rank0.bank4.reads 369439
i0.MainMemory.channel0.FRFCFS.channel0.rank0.bank4.writes 15406
i0.MainMemory.channel0.FRFCFS.channel0.rank0.bank4.activates 293415
i0.MainMemory.channel0.FRFCFS.channel0.rank0.bank4.precharges 293414
i0.MainMemory.channel0.FRFCFS.channel0.rank0.bank4.refreshes 0
i0.MainMemory.channel0.FRFCFS.channel0.rank0.bank4.activeCycles 697527399
i0.MainMemory.channel0.FRFCFS.channel0.rank0.bank4.standbyCycles 36327289
i0.MainMemory.channel0.FRFCFS.channel0.rank0.bank4.fastExitActiveCycles 0
i0.MainMemory.channel0.FRFCFS.channel0.rank0.bank4.fastExitPrechargeCycles 0
i0.MainMemory.channel0.FRFCFS.channel0.rank0.bank4.slowExitPrechargeCycles 0
i0.MainMemory.channel0.FRFCFS.channel0.rank0.bank4.actWaits 0
i0.MainMemory.channel0.FRFCFS.channel0.rank0.bank4.actWaitTotal 0
i0.MainMemory.channel0.FRFCFS.channel0.rank0.bank4.actWaitAverage -nan
i0.MainMemory.channel0.FRFCFS.channel0.rank0.bank4.averageEndurance 0
i0.MainMemory.channel0.FRFCFS.channel0.rank0.bank4.worstCaseEndurance 18446744073709551615
i0.MainMemory.channel0.FRFCFS.channel0.rank0.bank5.subarray0.subArrayEnergy 1.27315e+06nJ
i0.MainMemory.channel0.FRFCFS.channel0.rank0.bank5.subarray0.activeEnergy 23845nJ
i0.MainMemory.channel0.FRFCFS.channel0.rank0.bank5.subarray0.burstEnergy 26640.4nJ
i0.MainMemory.channel0.FRFCFS.channel0.rank0.bank5.subarray0.writeEnergy 1.22267e+06nJ
i0.MainMemory.channel0.FRFCFS.channel0.rank0.bank5.subarray0.refreshEnergy 0nJ
i0.MainMemory.channel0.FRFCFS.channel0.rank0.bank5.subarray0.cancelledWrites 0
i0.MainMemory.channel0.FRFCFS.channel0.rank0.bank5.subarray0.cancelledWriteTime 0
i0.MainMemory.channel0.FRFCFS.channel0.rank0.bank5.subarray0.pausedWrites 0
i0.MainMemory.channel0.FRFCFS.channel0.rank0.bank5.subarray0.averagePausesPerRequest 0
i0.MainMemory.channel0.FRFCFS.channel0.rank0.bank5.subarray0.measuredPauses 15458
i0.MainMemory.channel0.FRFCFS.channel0.rank0.bank5.subarray0.averagePausedRequestProgress 0
i0.MainMemory.channel0.FRFCFS.channel0.rank0.bank5.subarray0.measuredProgresses 0
i0.MainMemory.channel0.FRFCFS.channel0.rank0.bank5.subarray0.reads 369187
i0.MainMemory.channel0.FRFCFS.channel0.rank0.bank5.subarray0.writes 15458
i0.MainMemory.channel0.FRFCFS.channel0.rank0.bank5.subarray0.activates 293658
i0.MainMemory.channel0.FRFCFS.channel0.rank0.bank5.subarray0.precharges 293657
i0.MainMemory.channel0.FRFCFS.channel0.rank0.bank5.subarray0.refreshes 0
i0.MainMemory.channel0.FRFCFS.channel0.rank0.bank5.subarray0.worstCaseEndurance 18446744073709551615
i0.MainMemory.channel0.FRFCFS.channel0.rank0.bank5.subarray0.averageEndurance 0
i0.MainMemory.channel0.FRFCFS.channel0.rank0.bank5.subarray0.actWaits 360694
i0.MainMemory.channel0.FRFCFS.channel0.rank0.bank5.subarray0.actWaitTotal 36519258
i0.MainMemory.channel0.FRFCFS.channel0.rank0.bank5.subarray0.actWaitAverage 101.247
i0.MainMemory.channel0.FRFCFS.channel0.rank0.bank5.subarray0.worstCaseWrite 0
i0.MainMemory.channel0.FRFCFS.channel0.rank0.bank5.subarray0.num00Writes 0
i0.MainMemory.channel0.FRFCFS.channel0.rank0.bank5.subarray0.num01Writes 0
i0.MainMemory.channel0.FRFCFS.channel0.rank0.bank5.subarray0.num10Writes 0
i0.MainMemory.channel0.FRFCFS.channel0.rank0.bank5.subarray0.num11Writes 0
i0.MainMemory.channel0.FRFCFS.channel0.rank0.bank5.subarray0.averageWriteTime 200
i0.MainMemory.channel0.FRFCFS.channel0.rank0.bank5.subarray0.measuredWriteTimes 15175
i0.MainMemory.channel0.FRFCFS.channel0.rank0.bank5.subarray0.mlcTimingHisto {}
i0.MainMemory.channel0.FRFCFS.channel0.rank0.bank5.subarray0.cancelCountHisto {0: 15457}
i0.MainMemory.channel0.FRFCFS.channel0.rank0.bank5.subarray0.wpPauseHisto {}
i0.MainMemory.channel0.FRFCFS.channel0.rank0.bank5.subarray0.wpCancelHisto {}
i0.MainMemory.channel0.FRFCFS.channel0.rank0.bank5.bankEnergy 1.27315e+06nJ
i0.MainMemory.channel0.FRFCFS.channel0.rank0.bank5.activeEnergy 23845nJ
i0.MainMemory.channel0.FRFCFS.channel0.rank0.bank5.burstEnergy 26640.4nJ
i0.MainMemory.channel0.FRFCFS.channel0.rank0.bank5.refreshEnergy 0nJ
i0.MainMemory.channel0.FRFCFS.channel0.rank0.bank5.bankPower 1.73489e+06W
i0.MainMemory.channel0.FRFCFS.channel0.rank0.bank5.activePower 32492.8W
i0.MainMemory.channel0.FRFCFS.channel0.rank0.bank5.burstPower 36302W
i0.MainMemory.channel0.FRFCFS.channel0.rank0.bank5.refreshPower 0W
i0.MainMemory.channel0.FRFCFS.channel0.rank0.bank5.bandwidth 357.457MB/s
i0.MainMemory.channel0.FRFCFS.channel0.rank0.bank5.dataCycles 3077160
i0.MainMemory.channel0.FRFCFS.channel0.rank0.bank5.powerCycles 733854688
i0.MainMemory.channel0.FRFCFS.channel0.rank0.bank5.utilization 0.00419315
i0.MainMemory.channel0.FRFCFS.channel0.rank0.bank5.reads 369187
i0.MainMemory.channel0.FRFCFS.channel0.rank0.bank5.writes 15458
i0.MainMemory.channel0.FRFCFS.channel0.rank0.bank5.activates 293658
i0.MainMemory.channel0.FRFCFS.channel0.rank0.bank5.precharges 293657
i0.MainMemory.channel0.FRFCFS.channel0.rank0.bank5.refreshes 0
i0.MainMemory.channel0.FRFCFS.channel0.rank0.bank5.activeCycles 697347819
i0.MainMemory.channel0.FRFCFS.channel0.rank0.bank5.standbyCycles 36506869
i0.MainMemory.channel0.FRFCFS.channel0.rank0.bank5.fastExitActiveCycles 0
i0.MainMemory.channel0.FRFCFS.channel0.rank0.bank5.fastExitPrechargeCycles 0
i0.MainMemory.channel0.FRFCFS.channel0.rank0.bank5.slowExitPrechargeCycles 0
i0.MainMemory.channel0.FRFCFS.channel0.rank0.bank5.actWaits 0
i0.MainMemory.channel0.FRFCFS.channel0.rank0.bank5.actWaitTotal 0
i0.MainMemory.channel0.FRFCFS.channel0.rank0.bank5.actWaitAverage -nan
i0.MainMemory.channel0.FRFCFS.channel0.rank0.bank5.averageEndurance 0
i0.MainMemory.channel0.FRFCFS.channel0.rank0.bank5.worstCaseEndurance 18446744073709551615
i0.MainMemory.channel0.FRFCFS.channel0.rank0.bank6.subarray0.subArrayEnergy 1.28266e+06nJ
i0.MainMemory.channel0.FRFCFS.channel0.rank0.bank6.subarray0.activeEnergy 23851.7nJ
i0.MainMemory.channel0.FRFCFS.channel0.rank0.bank6.subarray0.burstEnergy 26638.3nJ
i0.MainMemory.channel0.FRFCFS.channel0.rank0.bank6.subarray0.writeEnergy 1.23217e+06nJ
i0.MainMemory.channel0.FRFCFS.channel0.rank0.bank6.subarray0.refreshEnergy 0nJ
i0.MainMemory.channel0.FRFCFS.channel0.rank0.bank6.subarray0.cancelledWrites 0
i0.MainMemory.channel0.FRFCFS.channel0.rank0.bank6.subarray0.cancelledWriteTime 0
i0.MainMemory.channel0.FRFCFS.channel0.rank0.bank6.subarray0.pausedWrites 0
i0.MainMemory.channel0.FRFCFS.channel0.rank0.bank6.subarray0.averagePausesPerRequest 0
i0.MainMemory.channel0.FRFCFS.channel0.rank0.bank6.subarray0.measuredPauses 15457
i0.MainMemory.channel0.FRFCFS.channel0.rank0.bank6.subarray0.averagePausedRequestProgress 0
i0.MainMemory.channel0.FRFCFS.channel0.rank0.bank6.subarray0.measuredProgresses 0
i0.MainMemory.channel0.FRFCFS.channel0.rank0.bank6.subarray0.reads 368950
i0.MainMemory.channel0.FRFCFS.channel0.rank0.bank6.subarray0.writes 15457
i0.MainMemory.channel0.FRFCFS.channel0.rank0.bank6.subarray0.activates 293740
i0.MainMemory.channel0.FRFCFS.channel0.rank0.bank6.subarray0.precharges 293739
i0.MainMemory.channel0.FRFCFS.channel0.rank0.bank6.subarray0.refreshes 0
i0.MainMemory.channel0.FRFCFS.channel0.rank0.bank6.subarray0.worstCaseEndurance 18446744073709551615
i0.MainMemory.channel0.FRFCFS.channel0.rank0.bank6.subarray0.averageEndurance 0
i0.MainMemory.channel0.FRFCFS.channel0.rank0.bank6.subarray0.actWaits 361003
i0.MainMemory.channel0.FRFCFS.channel0.rank0.bank6.subarray0.actWaitTotal 36589171
i0.MainMemory.channel0.FRFCFS.channel0.rank0.bank6.subarray0.actWaitAverage 101.354
i0.MainMemory.channel0.FRFCFS.channel0.rank0.bank6.subarray0.worstCaseWrite 0
i0.MainMemory.channel0.FRFCFS.channel0.rank0.bank6.subarray0.num00Writes 0
i0.MainMemory.channel0.FRFCFS.channel0.rank0.bank6.subarray0.num01Writes 0
i0.MainMemory.channel0.FRFCFS.channel0.rank0.bank6.subarray0.num10Writes 0
i0.MainMemory.channel0.FRFCFS.channel0.rank0.bank6.subarray0.num11Writes 0
i0.MainMemory.channel0.FRFCFS.channel0.rank0.bank6.subarray0.averageWriteTime 200
i0.MainMemory.channel0.FRFCFS.channel0.rank0.bank6.subarray0.measuredWriteTimes 15414
i0.MainMemory.channel0.FRFCFS.channel0.rank0.bank6.subarray0.mlcTimingHisto {}
i0.MainMemory.channel0.FRFCFS.channel0.rank0.bank6.subarray0.cancelCountHisto {0: 15456}
i0.MainMemory.channel0.FRFCFS.channel0.rank0.bank6.subarray0.wpPauseHisto {}
i0.MainMemory.channel0.FRFCFS.channel0.rank0.bank6.subarray0.wpCancelHisto {}
i0.MainMemory.channel0.FRFCFS.channel0.rank0.bank6.bankEnergy 1.28266e+06nJ
i0.MainMemory.channel0.FRFCFS.channel0.rank0.bank6.activeEnergy 23851.7nJ
i0.MainMemory.channel0.FRFCFS.channel0.rank0.bank6.burstEnergy 26638.3nJ
i0.MainMemory.channel0.FRFCFS.channel0.rank0.bank6.refreshEnergy 0nJ
i0.MainMemory.channel0.FRFCFS.channel0.rank0.bank6.bankPower 1.74784e+06W
i0.MainMemory.channel0.FRFCFS.channel0.rank0.bank6.activePower 32501.9W
i0.MainMemory.channel0.FRFCFS.channel0.rank0.bank6.burstPower 36299.2W
i0.MainMemory.channel0.FRFCFS.channel0.rank0.bank6.refreshPower 0W
i0.MainMemory.channel0.FRFCFS.channel0.rank0.bank6.bandwidth 357.236MB/s
i0.MainMemory.channel0.FRFCFS.channel0.rank0.bank6.dataCycles 3075256
i0.MainMemory.channel0.FRFCFS.channel0.rank0.bank6.powerCycles 733854688
i0.MainMemory.channel0.FRFCFS.channel0.rank0.bank6.utilization 0.00419055
i0.MainMemory.channel0.FRFCFS.channel0.rank0.bank6.reads 368950
i0.MainMemory.channel0.FRFCFS.channel0.rank0.bank6.writes 15457
i0.MainMemory.channel0.FRFCFS.channel0.rank0.bank6.activates 293740
i0.MainMemory.channel0.FRFCFS.channel0.rank0.bank6.precharges 293739
i0.MainMemory.channel0.FRFCFS.channel0.rank0.bank6.refreshes 0
i0.MainMemory.channel0.FRFCFS.channel0.rank0.bank6.activeCycles 698173793
i0.MainMemory.channel0.FRFCFS.channel0.rank0.bank6.standbyCycles 35680895
[...]
i0.hierarch_dram.L0_cache.FRFCFS.channel0.rank0.bank4.subarray0.measuredWriteTimes 530
i0.hierarch_dram.L0_cache.FRFCFS.channel0.rank0.bank4.subarray0.mlcTimingHisto {}
i0.hierarch_dram.L0_cache.FRFCFS.channel0.rank0.bank4.subarray0.cancelCountHisto {0: 24574}
i0.hierarch_dram.L0_cache.FRFCFS.channel0.rank0.bank4.subarray0.wpPauseHisto {}
i0.hierarch_dram.L0_cache.FRFCFS.channel0.rank0.bank4.subarray0.wpCancelHisto {}
i0.hierarch_dram.L0_cache.FRFCFS.channel0.rank0.bank4.bankEnergy 5.73135e+08mA*t
i0.hierarch_dram.L0_cache.FRFCFS.channel0.rank0.bank4.activeEnergy 78930.8mA*t
i0.hierarch_dram.L0_cache.FRFCFS.channel0.rank0.bank4.burstEnergy 3.67752e+06mA*t
i0.hierarch_dram.L0_cache.FRFCFS.channel0.rank0.bank4.refreshEnergy 5.69379e+08mA*t
i0.hierarch_dram.L0_cache.FRFCFS.channel0.rank0.bank4.bankPower 0.000154613W
i0.hierarch_dram.L0_cache.FRFCFS.channel0.rank0.bank4.activePower 2.12929e-08W
i0.hierarch_dram.L0_cache.FRFCFS.channel0.rank0.bank4.burstPower 9.92073e-07W
i0.hierarch_dram.L0_cache.FRFCFS.channel0.rank0.bank4.refreshPower 0.0001536W
i0.hierarch_dram.L0_cache.FRFCFS.channel0.rank0.bank4.bandwidth 3.63318MB/s
i0.hierarch_dram.L0_cache.FRFCFS.channel0.rank0.bank4.dataCycles 236976
i0.hierarch_dram.L0_cache.FRFCFS.channel0.rank0.bank4.powerCycles 5560347866
i0.hierarch_dram.L0_cache.FRFCFS.channel0.rank0.bank4.utilization 4.26189e-05
i0.hierarch_dram.L0_cache.FRFCFS.channel0.rank0.bank4.reads 5047
i0.hierarch_dram.L0_cache.FRFCFS.channel0.rank0.bank4.writes 24575
i0.hierarch_dram.L0_cache.FRFCFS.channel0.rank0.bank4.activates 551
i0.hierarch_dram.L0_cache.FRFCFS.channel0.rank0.bank4.precharges 551
i0.hierarch_dram.L0_cache.FRFCFS.channel0.rank0.bank4.refreshes 444827
i0.hierarch_dram.L0_cache.FRFCFS.channel0.rank0.bank4.activeCycles 4688954
i0.hierarch_dram.L0_cache.FRFCFS.channel0.rank0.bank4.standbyCycles 5555658912
i0.hierarch_dram.L0_cache.FRFCFS.channel0.rank0.bank4.fastExitActiveCycles 0
i0.hierarch_dram.L0_cache.FRFCFS.channel0.rank0.bank4.fastExitPrechargeCycles 0
i0.hierarch_dram.L0_cache.FRFCFS.channel0.rank0.bank4.slowExitPrechargeCycles 0
i0.hierarch_dram.L0_cache.FRFCFS.channel0.rank0.bank4.actWaits 0
i0.hierarch_dram.L0_cache.FRFCFS.channel0.rank0.bank4.actWaitTotal 0
i0.hierarch_dram.L0_cache.FRFCFS.channel0.rank0.bank4.actWaitAverage -nan
i0.hierarch_dram.L0_cache.FRFCFS.channel0.rank0.bank4.averageEndurance 0
i0.hierarch_dram.L0_cache.FRFCFS.channel0.rank0.bank4.worstCaseEndurance 18446744073709551615
i0.hierarch_dram.L0_cache.FRFCFS.channel0.rank0.bank5.subarray0.subArrayEnergy 5.69379e+08mA*t
i0.hierarch_dram.L0_cache.FRFCFS.channel0.rank0.bank5.subarray0.activeEnergy 0mA*t
i0.hierarch_dram.L0_cache.FRFCFS.channel0.rank0.bank5.subarray0.burstEnergy 0mA*t
i0.hierarch_dram.L0_cache.FRFCFS.channel0.rank0.bank5.subarray0.refreshEnergy 5.69379e+08mA*t
i0.hierarch_dram.L0_cache.FRFCFS.channel0.rank0.bank5.subarray0.cancelledWrites 0
i0.hierarch_dram.L0_cache.FRFCFS.channel0.rank0.bank5.subarray0.cancelledWriteTime 0
i0.hierarch_dram.L0_cache.FRFCFS.channel0.rank0.bank5.subarray0.pausedWrites 0
i0.hierarch_dram.L0_cache.FRFCFS.channel0.rank0.bank5.subarray0.averagePausesPerRequest 0
i0.hierarch_dram.L0_cache.FRFCFS.channel0.rank0.bank5.subarray0.measuredPauses 0
i0.hierarch_dram.L0_cache.FRFCFS.channel0.rank0.bank5.subarray0.averagePausedRequestProgress 0
i0.hierarch_dram.L0_cache.FRFCFS.channel0.rank0.bank5.subarray0.measuredProgresses 0
i0.hierarch_dram.L0_cache.FRFCFS.channel0.rank0.bank5.subarray0.reads 0
i0.hierarch_dram.L0_cache.FRFCFS.channel0.rank0.bank5.subarray0.writes 0
i0.hierarch_dram.L0_cache.FRFCFS.channel0.rank0.bank5.subarray0.activates 0
i0.hierarch_dram.L0_cache.FRFCFS.channel0.rank0.bank5.subarray0.precharges 0
i0.hierarch_dram.L0_cache.FRFCFS.channel0.rank0.bank5.subarray0.refreshes 444827
i0.hierarch_dram.L0_cache.FRFCFS.channel0.rank0.bank5.subarray0.worstCaseEndurance 18446744073709551615
i0.hierarch_dram.L0_cache.FRFCFS.channel0.rank0.bank5.subarray0.averageEndurance 0
i0.hierarch_dram.L0_cache.FRFCFS.channel0.rank0.bank5.subarray0.actWaits 0
i0.hierarch_dram.L0_cache.FRFCFS.channel0.rank0.bank5.subarray0.actWaitTotal 0
i0.hierarch_dram.L0_cache.FRFCFS.channel0.rank0.bank5.subarray0.actWaitAverage -nan
i0.hierarch_dram.L0_cache.FRFCFS.channel0.rank0.bank5.subarray0.worstCaseWrite 0
i0.hierarch_dram.L0_cache.FRFCFS.channel0.rank0.bank5.subarray0.num00Writes 0
i0.hierarch_dram.L0_cache.FRFCFS.channel0.rank0.bank5.subarray0.num01Writes 0
i0.hierarch_dram.L0_cache.FRFCFS.channel0.rank0.bank5.subarray0.num10Writes 0
i0.hierarch_dram.L0_cache.FRFCFS.channel0.rank0.bank5.subarray0.num11Writes 0
i0.hierarch_dram.L0_cache.FRFCFS.channel0.rank0.bank5.subarray0.averageWriteTime 0
i0.hierarch_dram.L0_cache.FRFCFS.channel0.rank0.bank5.subarray0.measuredWriteTimes 0
i0.hierarch_dram.L0_cache.FRFCFS.channel0.rank0.bank5.subarray0.mlcTimingHisto {}
i0.hierarch_dram.L0_cache.FRFCFS.channel0.rank0.bank5.subarray0.cancelCountHisto {}
i0.hierarch_dram.L0_cache.FRFCFS.channel0.rank0.bank5.subarray0.wpPauseHisto {}
i0.hierarch_dram.L0_cache.FRFCFS.channel0.rank0.bank5.subarray0.wpCancelHisto {}
i0.hierarch_dram.L0_cache.FRFCFS.channel0.rank0.bank5.bankEnergy 5.69379e+08mA*t
i0.hierarch_dram.L0_cache.FRFCFS.channel0.rank0.bank5.activeEnergy 0mA*t
i0.hierarch_dram.L0_cache.FRFCFS.channel0.rank0.bank5.burstEnergy 0mA*t
i0.hierarch_dram.L0_cache.FRFCFS.channel0.rank0.bank5.refreshEnergy 5.69379e+08mA*t
i0.hierarch_dram.L0_cache.FRFCFS.channel0.rank0.bank5.bankPower 0.0001536W
i0.hierarch_dram.L0_cache.FRFCFS.channel0.rank0.bank5.activePower 0W
i0.hierarch_dram.L0_cache.FRFCFS.channel0.rank0.bank5.burstPower 0W
i0.hierarch_dram.L0_cache.FRFCFS.channel0.rank0.bank5.refreshPower 0.0001536W
i0.hierarch_dram.L0_cache.FRFCFS.channel0.rank0.bank5.bandwidth 0MB/s
i0.hierarch_dram.L0_cache.FRFCFS.channel0.rank0.bank5.dataCycles 0
i0.hierarch_dram.L0_cache.FRFCFS.channel0.rank0.bank5.powerCycles 5560347866
i0.hierarch_dram.L0_cache.FRFCFS.channel0.rank0.bank5.utilization 0
i0.hierarch_dram.L0_cache.FRFCFS.channel0.rank0.bank5.reads 0
i0.hierarch_dram.L0_cache.FRFCFS.channel0.rank0.bank5.writes 0
i0.hierarch_dram.L0_cache.FRFCFS.channel0.rank0.bank5.activates 0
i0.hierarch_dram.L0_cache.FRFCFS.channel0.rank0.bank5.precharges 0
i0.hierarch_dram.L0_cache.FRFCFS.channel0.rank0.bank5.refreshes 444827
i0.hierarch_dram.L0_cache.FRFCFS.channel0.rank0.bank5.activeCycles 0
i0.hierarch_dram.L0_cache.FRFCFS.channel0.rank0.bank5.standbyCycles 5560347866
i0.hierarch_dram.L0_cache.FRFCFS.channel0.rank0.bank5.fastExitActiveCycles 0
i0.hierarch_dram.L0_cache.FRFCFS.channel0.rank0.bank5.fastExitPrechargeCycles 0
i0.hierarch_dram.L0_cache.FRFCFS.channel0.rank0.bank5.slowExitPrechargeCycles 0
i0.hierarch_dram.L0_cache.FRFCFS.channel0.rank0.bank5.actWaits 0
i0.hierarch_dram.L0_cache.FRFCFS.channel0.rank0.bank5.actWaitTotal 0
i0.hierarch_dram.L0_cache.FRFCFS.channel0.rank0.bank5.actWaitAverage -nan
i0.hierarch_dram.L0_cache.FRFCFS.channel0.rank0.bank5.averageEndurance 0
i0.hierarch_dram.L0_cache.FRFCFS.channel0.rank0.bank5.worstCaseEndurance 18446744073709551615
i0.hierarch_dram.L0_cache.FRFCFS.channel0.rank0.bank6.subarray0.subArrayEnergy 5.69379e+08mA*t
i0.hierarch_dram.L0_cache.FRFCFS.channel0.rank0.bank6.subarray0.activeEnergy 0mA*t
i0.hierarch_dram.L0_cache.FRFCFS.channel0.rank0.bank6.subarray0.burstEnergy 0mA*t
i0.hierarch_dram.L0_cache.FRFCFS.channel0.rank0.bank6.subarray0.refreshEnergy 5.69379e+08mA*t
i0.hierarch_dram.L0_cache.FRFCFS.channel0.rank0.bank6.subarray0.cancelledWrites 0
i0.hierarch_dram.L0_cache.FRFCFS.channel0.rank0.bank6.subarray0.cancelledWriteTime 0
i0.hierarch_dram.L0_cache.FRFCFS.channel0.rank0.bank6.subarray0.pausedWrites 0
i0.hierarch_dram.L0_cache.FRFCFS.channel0.rank0.bank6.subarray0.averagePausesPerRequest 0
i0.hierarch_dram.L0_cache.FRFCFS.channel0.rank0.bank6.subarray0.measuredPauses 0
i0.hierarch_dram.L0_cache.FRFCFS.channel0.rank0.bank6.subarray0.averagePausedRequestProgress 0
i0.hierarch_dram.L0_cache.FRFCFS.channel0.rank0.bank6.subarray0.measuredProgresses 0
i0.hierarch_dram.L0_cache.FRFCFS.channel0.rank0.bank6.subarray0.reads 0
i0.hierarch_dram.L0_cache.FRFCFS.channel0.rank0.bank6.subarray0.writes 0
i0.hierarch_dram.L0_cache.FRFCFS.channel0.rank0.bank6.subarray0.activates 0
i0.hierarch_dram.L0_cache.FRFCFS.channel0.rank0.bank6.subarray0.precharges 0
i0.hierarch_dram.L0_cache.FRFCFS.channel0.rank0.bank6.subarray0.refreshes 444827
i0.hierarch_dram.L0_cache.FRFCFS.channel0.rank0.bank6.subarray0.worstCaseEndurance 18446744073709551615
i0.hierarch_dram.L0_cache.FRFCFS.channel0.rank0.bank6.subarray0.averageEndurance 0
i0.hierarch_dram.L0_cache.FRFCFS.channel0.rank0.bank6.subarray0.actWaits 0
i0.hierarch_dram.L0_cache.FRFCFS.channel0.rank0.bank6.subarray0.actWaitTotal 0
i0.hierarch_dram.L0_cache.FRFCFS.channel0.rank0.bank6.subarray0.actWaitAverage -nan
i0.hierarch_dram.L0_cache.FRFCFS.channel0.rank0.bank6.subarray0.worstCaseWrite 0
i0.hierarch_dram.L0_cache.FRFCFS.channel0.rank0.bank6.subarray0.num00Writes 0
i0.hierarch_dram.L0_cache.FRFCFS.channel0.rank0.bank6.subarray0.num01Writes 0
i0.hierarch_dram.L0_cache.FRFCFS.channel0.rank0.bank6.subarray0.num10Writes 0
i0.hierarch_dram.L0_cache.FRFCFS.channel0.rank0.bank6.subarray0.num11Writes 0
i0.hierarch_dram.L0_cache.FRFCFS.channel0.rank0.bank6.subarray0.averageWriteTime 0
i0.hierarch_dram.L0_cache.FRFCFS.channel0.rank0.bank6.subarray0.measuredWriteTimes 0
i0.hierarch_dram.L0_cache.FRFCFS.channel0.rank0.bank6.subarray0.mlcTimingHisto {}
i0.hierarch_dram.L0_cache.FRFCFS.channel0.rank0.bank6.subarray0.cancelCountHisto {}
i0.hierarch_dram.L0_cache.FRFCFS.channel0.rank0.bank6.subarray0.wpPauseHisto {}
i0.hierarch_dram.L0_cache.FRFCFS.channel0.rank0.bank6.subarray0.wpCancelHisto {}
i0.hierarch_dram.L0_cache.FRFCFS.channel0.rank0.bank6.bankEnergy 5.69379e+08mA*t
i0.hierarch_dram.L0_cache.FRFCFS.channel0.rank0.bank6.activeEnergy 0mA*t
i0.hierarch_dram.L0_cache.FRFCFS.channel0.rank0.bank6.burstEnergy 0mA*t
i0.hierarch_dram.L0_cache.FRFCFS.channel0.rank0.bank6.refreshEnergy 5.69379e+08mA*t
i0.hierarch_dram.L0_cache.FRFCFS.channel0.rank0.bank6.bankPower 0.0001536W
i0.hierarch_dram.L0_cache.FRFCFS.channel0.rank0.bank6.activePower 0W
i0.hierarch_dram.L0_cache.FRFCFS.channel0.rank0.bank6.burstPower 0W
i0.hierarch_dram.L0_cache.FRFCFS.channel0.rank0.bank6.refreshPower 0.0001536W
i0.hierarch_dram.L0_cache.FRFCFS.channel0.rank0.bank6.bandwidth 0MB/s
i0.hierarch_dram.L0_cache.FRFCFS.channel0.rank0.bank6.dataCycles 0
i0.hierarch_dram.L0_cache.FRFCFS.channel0.rank0.bank6.powerCycles 5560347866
i0.hierarch_dram.L0_cache.FRFCFS.channel0.rank0.bank6.utilization 0
i0.hierarch_dram.L0_cache.FRFCFS.channel0.rank0.bank6.reads 0
i0.hierarch_dram.L0_cache.FRFCFS.channel0.rank0.bank6.writes 0
i0.hierarch_dram.L0_cache.FRFCFS.channel0.rank0.bank6.activates 0
i0.hierarch_dram.L0_cache.FRFCFS.channel0.rank0.bank6.precharges 0
i0.hierarch_dram.L0_cache.FRFCFS.channel0.rank0.bank6.refreshes 444827
i0.hierarch_dram.L0_cache.FRFCFS.channel0.rank0.bank6.activeCycles 0
i0.hierarch_dram.L0_cache.FRFCFS.channel0.rank0.bank6.standbyCycles 5560347866
i0.hierarch_dram.L0_cache.FRFCFS.channel0.rank0.bank6.fastExitActiveCycles 0
i0.hierarch_dram.L0_cache.FRFCFS.channel0.rank0.bank6.fastExitPrechargeCycles 0
i0.hierarch_dram.L0_cache.FRFCFS.channel0.rank0.bank6.slowExitPrechargeCycles 0
i0.hierarch_dram.L0_cache.FRFCFS.channel0.rank0.bank6.actWaits 0
i0.hierarch_dram.L0_cache.FRFCFS.channel0.rank0.bank6.actWaitTotal 0
i0.hierarch_dram.L0_cache.FRFCFS.channel0.rank0.bank6.actWaitAverage -nan
i0.hierarch_dram.L0_cache.FRFCFS.channel0.rank0.bank6.averageEndurance 0
i0.hierarch_dram.L0_cache.FRFCFS.channel0.rank0.bank6.worstCaseEndurance 18446744073709551615
i0.hierarch_dram.L0_cache.FRFCFS.channel0.rank0.bank7.subarray0.subArrayEnergy 5.69379e+08mA*t
i0.hierarch_dram.L0_cache.FRFCFS.channel0.rank0.bank7.subarray0.activeEnergy 0mA*t
i0.hierarch_dram.L0_cache.FRFCFS.channel0.rank0.bank7.subarray0.burstEnergy 0mA*t
i0.hierarch_dram.L0_cache.FRFCFS.channel0.rank0.bank7.subarray0.refreshEnergy 5.69379e+08mA*t
i0.hierarch_dram.L0_cache.FRFCFS.channel0.rank0.bank7.subarray0.cancelledWrites 0
i0.hierarch_dram.L0_cache.FRFCFS.channel0.rank0.bank7.subarray0.cancelledWriteTime 0
i0.hierarch_dram.L0_cache.FRFCFS.channel0.rank0.bank7.subarray0.pausedWrites 0
i0.hierarch_dram.L0_cache.FRFCFS.channel0.rank0.bank7.subarray0.averagePausesPerRequest 0
i0.hierarch_dram.L0_cache.FRFCFS.channel0.rank0.bank7.subarray0.measuredPauses 0
i0.hierarch_dram.L0_cache.FRFCFS.channel0.rank0.bank7.subarray0.averagePausedRequestProgress 0
i0.hierarch_dram.L0_cache.FRFCFS.channel0.rank0.bank7.subarray0.measuredProgresses 0
i0.hierarch_dram.L0_cache.FRFCFS.channel0.rank0.bank7.subarray0.reads 0
i0.hierarch_dram.L0_cache.FRFCFS.channel0.rank0.bank7.subarray0.writes 0
i0.hierarch_dram.L0_cache.FRFCFS.channel0.rank0.bank7.subarray0.activates 0
i0.hierarch_dram.L0_cache.FRFCFS.channel0.rank0.bank7.subarray0.precharges 0
i0.hierarch_dram.L0_cache.FRFCFS.channel0.rank0.bank7.subarray0.refreshes 444827
i0.hierarch_dram.L0_cache.FRFCFS.channel0.rank0.bank7.subarray0.worstCaseEndurance 18446744073709551615
i0.hierarch_dram.L0_cache.FRFCFS.channel0.rank0.bank7.subarray0.averageEndurance 0
i0.hierarch_dram.L0_cache.FRFCFS.channel0.rank0.bank7.subarray0.actWaits 0
i0.hierarch_dram.L0_cache.FRFCFS.channel0.rank0.bank7.subarray0.actWaitTotal 0
i0.hierarch_dram.L0_cache.FRFCFS.channel0.rank0.bank7.subarray0.actWaitAverage -nan
i0.hierarch_dram.L0_cache.FRFCFS.channel0.rank0.bank7.subarray0.worstCaseWrite 0
i0.hierarch_dram.L0_cache.FRFCFS.channel0.rank0.bank7.subarray0.num00Writes 0
i0.hierarch_dram.L0_cache.FRFCFS.channel0.rank0.bank7.subarray0.num01Writes 0
i0.hierarch_dram.L0_cache.FRFCFS.channel0.rank0.bank7.subarray0.num10Writes 0
i0.hierarch_dram.L0_cache.FRFCFS.channel0.rank0.bank7.subarray0.num11Writes 0
i0.hierarch_dram.L0_cache.FRFCFS.channel0.rank0.bank7.subarray0.averageWriteTime 0
i0.hierarch_dram.L0_cache.FRFCFS.channel0.rank0.bank7.subarray0.measuredWriteTimes 0
i0.hierarch_dram.L0_cache.FRFCFS.channel0.rank0.bank7.subarray0.mlcTimingHisto {}
i0.hierarch_dram.L0_cache.FRFCFS.channel0.rank0.bank7.subarray0.cancelCountHisto {}
i0.hierarch_dram.L0_cache.FRFCFS.channel0.rank0.bank7.subarray0.wpPauseHisto {}
i0.hierarch_dram.L0_cache.FRFCFS.channel0.rank0.bank7.subarray0.wpCancelHisto {}
i0.hierarch_dram.L0_cache.FRFCFS.channel0.rank0.bank7.bankEnergy 5.69379e+08mA*t
i0.hierarch_dram.L0_cache.FRFCFS.channel0.rank0.bank7.activeEnergy 0mA*t
i0.hierarch_dram.L0_cache.FRFCFS.channel0.rank0.bank7.burstEnergy 0mA*t
i0.hierarch_dram.L0_cache.FRFCFS.channel0.rank0.bank7.refreshEnergy 5.69379e+08mA*t
i0.hierarch_dram.L0_cache.FRFCFS.channel0.rank0.bank7.bankPower 0.0001536W
i0.hierarch_dram.L0_cache.FRFCFS.channel0.rank0.bank7.activePower 0W
i0.hierarch_dram.L0_cache.FRFCFS.channel0.rank0.bank7.burstPower 0W
i0.hierarch_dram.L0_cache.FRFCFS.channel0.rank0.bank7.refreshPower 0.0001536W
i0.hierarch_dram.L0_cache.FRFCFS.channel0.rank0.bank7.bandwidth 0MB/s
i0.hierarch_dram.L0_cache.FRFCFS.channel0.rank0.bank7.dataCycles 0
i0.hierarch_dram.L0_cache.FRFCFS.channel0.rank0.bank7.powerCycles 5560347866
i0.hierarch_dram.L0_cache.FRFCFS.channel0.rank0.bank7.utilization 0
i0.hierarch_dram.L0_cache.FRFCFS.channel0.rank0.bank7.reads 0
i0.hierarch_dram.L0_cache.FRFCFS.channel0.rank0.bank7.writes 0
i0.hierarch_dram.L0_cache.FRFCFS.channel0.rank0.bank7.activates 0
i0.hierarch_dram.L0_cache.FRFCFS.channel0.rank0.bank7.precharges 0
i0.hierarch_dram.L0_cache.FRFCFS.channel0.rank0.bank7.refreshes 444827
i0.hierarch_dram.L0_cache.FRFCFS.channel0.rank0.bank7.activeCycles 0
i0.hierarch_dram.L0_cache.FRFCFS.channel0.rank0.bank7.standbyCycles 5560347866
i0.hierarch_dram.L0_cache.FRFCFS.channel0.rank0.bank7.fastExitActiveCycles 0
i0.hierarch_dram.L0_cache.FRFCFS.channel0.rank0.bank7.fastExitPrechargeCycles 0
i0.hierarch_dram.L0_cache.FRFCFS.channel0.rank0.bank7.slowExitPrechargeCycles 0
i0.hierarch_dram.L0_cache.FRFCFS.channel0.rank0.bank7.actWaits 0
i0.hierarch_dram.L0_cache.FRFCFS.channel0.rank0.bank7.actWaitTotal 0
i0.hierarch_dram.L0_cache.FRFCFS.channel0.rank0.bank7.actWaitAverage -nan
i0.hierarch_dram.L0_cache.FRFCFS.channel0.rank0.bank7.averageEndurance 0
i0.hierarch_dram.L0_cache.FRFCFS.channel0.rank0.bank7.worstCaseEndurance 18446744073709551615
i0.hierarch_dram.L0_cache.FRFCFS.channel0.rank0.totalEnergy 1.7898e+12mA*t
i0.hierarch_dram.L0_cache.FRFCFS.channel0.rank0.backgroundEnergy 1.72369e+12mA*t
i0.hierarch_dram.L0_cache.FRFCFS.channel0.rank0.activateEnergy 3.1413e+08mA*t
i0.hierarch_dram.L0_cache.FRFCFS.channel0.rank0.burstEnergy 2.20115e+10mA*t
i0.hierarch_dram.L0_cache.FRFCFS.channel0.rank0.refreshEnergy 3.64402e+10mA*t
i0.hierarch_dram.L0_cache.FRFCFS.channel0.rank0.totalPower 0.0739774W
i0.hierarch_dram.L0_cache.FRFCFS.channel0.rank0.backgroundPower 0.0581243W
i0.hierarch_dram.L0_cache.FRFCFS.channel0.rank0.activatePower 8.4742e-05W
i0.hierarch_dram.L0_cache.FRFCFS.channel0.rank0.burstPower 0.00593797W
i0.hierarch_dram.L0_cache.FRFCFS.channel0.rank0.refreshPower 0.00983038W
i0.hierarch_dram.L0_cache.FRFCFS.channel0.rank0.reads 220598
i0.hierarch_dram.L0_cache.FRFCFS.channel0.rank0.writes 21799686
i0.hierarch_dram.L0_cache.FRFCFS.channel0.rank0.activeCycles 3242621843
i0.hierarch_dram.L0_cache.FRFCFS.channel0.rank0.standbyCycles 2317726023
i0.hierarch_dram.L0_cache.FRFCFS.channel0.rank0.fastExitActiveCycles 0
i0.hierarch_dram.L0_cache.FRFCFS.channel0.rank0.fastExitPrechargeCycles 0
i0.hierarch_dram.L0_cache.FRFCFS.channel0.rank0.slowExitCycles 0
i0.hierarch_dram.L0_cache.FRFCFS.channel0.rank0.actWaits 58645
i0.hierarch_dram.L0_cache.FRFCFS.channel0.rank0.actWaitTotal 86848
i0.hierarch_dram.L0_cache.FRFCFS.channel0.rank0.actWaitAverage 1.48091
i0.hierarch_dram.L0_cache.FRFCFS.channel0.rank0.rrdWaits 58646
i0.hierarch_dram.L0_cache.FRFCFS.channel0.rank0.rrdWaitTotal 86850
i0.hierarch_dram.L0_cache.FRFCFS.channel0.rank0.rrdWaitAverage 1.48092
i0.hierarch_dram.L0_cache.FRFCFS.channel0.rank0.fawWaits 1
i0.hierarch_dram.L0_cache.FRFCFS.channel0.rank0.fawWaitTotal 11
i0.hierarch_dram.L0_cache.FRFCFS.channel0.rank0.fawWaitAverage 11
i0.hierarch_dram.L0_cache.FRFCFS.mem_reads 220598
i0.hierarch_dram.L0_cache.FRFCFS.mem_writes 21799686
i0.hierarch_dram.L0_cache.FRFCFS.rb_hits 21746174
i0.hierarch_dram.L0_cache.FRFCFS.rb_miss 274110
i0.hierarch_dram.L0_cache.FRFCFS.starvation_precharges 2
i0.hierarch_dram.L0_cache.FRFCFS.averageLatency 22.6606
i0.hierarch_dram.L0_cache.FRFCFS.averageQueueLatency 1.07227
i0.hierarch_dram.L0_cache.FRFCFS.averageTotalLatency 23.7329
i0.hierarch_dram.L0_cache.FRFCFS.measuredLatencies 22020284
i0.hierarch_dram.L0_cache.FRFCFS.measuredQueueLatencies 22020284
i0.hierarch_dram.L0_cache.FRFCFS.measuredTotalLatencies 22020284
i0.hierarch_dram.L0_cache.FRFCFS.write_pauses 0
i0.hierarch_dram.L0_cache.FRFCFS.simulation_cycles 5560347866
i0.hierarch_dram.L0_cache.FRFCFS.wakeupCount 29565766
i0.hierarch_dram.totalReadRequests 13453722
i0.hierarch_dram.totalWriteRequests 8566562
i0.hierarch_dram.successfulPrefetches 0
i0.hierarch_dram.unsuccessfulPrefetches 0
i0.hierarch_dram.drc_hits 410783
i0.hierarch_dram.drc_miss 21609501
i0.hierarch_dram.drc_hits_0 410783
i0.hierarch_dram.drc_miss_0 21609501
i0.hierarch_dram.drc_hits_1 0
i0.hierarch_dram.drc_miss_1 0
i0.hierarch_dram.drc_hits_2 0
i0.hierarch_dram.drc_miss_2 0
i0.hierarch_dram.drc_hits_3 0
i0.hierarch_dram.drc_miss_3 0
i0.hierarch_dram.drc_hits_4 0
i0.hierarch_dram.drc_miss_4 0
i0.hierarch_dram.drc_hits_5 0
i0.hierarch_dram.drc_miss_5 0
i0.hierarch_dram.read_hits 220598
i0.hierarch_dram.read_miss 13233124
i0.hierarch_dram.write_hits 190185
i0.hierarch_dram.write_miss 8376377
i0.hierarch_dram.total_drc_size 134217728
i0.hierarch_dram.assoc 256
i0.hierarch_dram.lineSize 64
i0.hierarch_dram.set_num 8192
i0.hierarch_dram.drc_hit_rate 0.0186548
i0.hierarch_dram.drc_miss_rate 0.981345
i0.hierarch_dram.caching_cycles 2949553635
